@<TRIPOS>MOLECULE
Y3L
   21    22     1     0     0
SMALL
bcc


@<TRIPOS>ATOM
      1 NAG          0.8920    -1.5160    -0.0110 nc         1 Y3L      -0.605100
      2 CAM         -0.4170    -1.1050    -0.0070 ca         1 Y3L       0.125400
      3 CAE         -1.5320    -1.9420    -0.0070 ca         1 Y3L      -0.078000
      4 CAD         -2.7950    -1.3840    -0.0030 ca         1 Y3L      -0.118000
      5 CAK         -2.9470     0.0040     0.0020 ca         1 Y3L       0.024400
      6 CLAC        -4.5480     0.6700     0.0070 cl         1 Y3L      -0.110400
      7 CAF         -1.8630     0.8620     0.0020 ca         1 Y3L      -0.074000
      8 CAN         -0.6020     0.2850    -0.0030 ca         1 Y3L      -0.097100
      9 SAI          0.9420     1.0830    -0.0060 ss         1 Y3L       0.009900
     10 CAL          1.6840    -0.5010    -0.0110 cd         1 Y3L       0.443800
     11 NAH          3.0430    -0.6570    -0.0150 ns         1 Y3L      -0.471400
     12 CAJ          3.9490     0.3650    -0.0130 c          1 Y3L       0.675100
     13 OAB          3.5800     1.5240    -0.0050 o          1 Y3L      -0.565100
     14 CAA          5.3880    -0.0500    -0.0170 c3         1 Y3L      -0.173100
     15 HAH          3.3690    -1.6140    -0.0230 hn         1 Y3L       0.341500
     16 HAE         -1.4060    -3.0170    -0.0090 ha         1 Y3L       0.152000
     17 HAD         -3.6670    -2.0230    -0.0040 ha         1 Y3L       0.150000
     18 HAF         -1.9960     1.9350     0.0060 ha         1 Y3L       0.156000
     19 HAA1         5.5260    -1.1280    -0.0500 hc         1 Y3L       0.071033
     20 HAA2         5.8880     0.3940    -0.8780 hc         1 Y3L       0.071033
     21 HAA3         5.8750     0.3370     0.8780 hc         1 Y3L       0.071033
@<TRIPOS>BOND
     1     1     2 1   
     2     1    10 2   
     3     2     3 ar  
     4     2     8 ar  
     5     3     4 ar  
     6     3    16 1   
     7     4     5 ar  
     8     4    17 1   
     9     5     6 1   
    10     5     7 ar  
    11     7     8 ar  
    12     7    18 1   
    13     8     9 1   
    14     9    10 1   
    15    10    11 1   
    16    11    12 1   
    17    11    15 1   
    18    12    13 2   
    19    12    14 1   
    20    14    19 1   
    21    14    20 1   
    22    14    21 1   
@<TRIPOS>SUBSTRUCTURE
     1 Y3L         1 TEMP              0 ****  ****    0 ROOT
