@<TRIPOS>MOLECULE
Y3M
   56    61     1     0     0
SMALL
bcc


@<TRIPOS>ATOM
      1 O17          3.2760     0.4270     1.7810 o          1 Y3M      -0.505000
      2 C16          3.2300     0.2670     0.5820 c          1 Y3M       0.687700
      3 O18          4.0750     0.8490    -0.2720 os         1 Y3M      -0.456900
      4 C19          5.0570     1.7450     0.2570 c3         1 Y3M       0.148400
      5 C20          5.8080     2.3470    -0.9070 c3         1 Y3M      -0.099100
      6 C7           2.2710    -0.5680    -0.1110 cc         1 Y3M      -0.160900
      7 C3           1.2160    -1.3270     0.3860 cd         1 Y3M       0.153400
      8 N6           2.2540    -0.7150    -1.4750 na         1 Y3M      -0.120100
      9 C5           1.2400    -1.5210    -1.8470 cc         1 Y3M      -0.099300
     10 C4           0.5740    -1.9240    -0.7150 cd         1 Y3M      -0.205300
     11 C2          -0.6960    -2.6990    -0.5490 c6         1 Y3M       0.059500
     12 C8          -0.8870    -3.0230     0.9240 ce         1 Y3M      -0.282800
     13 C13         -1.8290    -3.9240     1.2920 c2         1 Y3M       0.122900
     14 O14         -2.4910    -4.5740     0.3330 oh         1 Y3M      -0.488100
     15 C12         -2.1810    -4.2330     2.7120 c6         1 Y3M      -0.078200
     16 C11         -1.8310    -3.0650     3.6190 c6         1 Y3M      -0.067400
     17 C10         -0.3930    -2.6440     3.3820 c6         1 Y3M      -0.121700
     18 C9          -0.1070    -2.3340     1.9380 ce         1 Y3M       0.501600
     19 N1           0.8600    -1.5120     1.7040 nf         1 Y3M      -0.530100
     20 C15         -1.8180    -1.8560    -1.0640 cc         1 Y3M       0.287000
     21 O24         -2.0690    -0.7320    -0.3730 os         1 Y3M      -0.282800
     22 C23         -2.9610    -0.0080    -1.0780 cc         1 Y3M       0.286000
     23 C22         -3.3260    -0.6730    -2.2010 cd         1 Y3M      -0.193300
     24 C21         -2.5850    -1.8930    -2.1840 cd         1 Y3M      -0.286300
     25 S25         -3.4700     1.5110    -0.4220 ss         1 Y3M      -0.163500
     26 C26         -1.9110     2.3220    -0.3550 cc         1 Y3M       0.413700
     27 N28         -0.8640     2.0310    -1.0650 nd         1 Y3M      -0.551100
     28 C29          0.1090     2.8940    -0.6190 ca         1 Y3M       0.073400
     29 C34          1.4420     3.0200    -1.0080 ca         1 Y3M      -0.063000
     30 C33          2.2050     3.9930    -0.3890 ca         1 Y3M      -0.157000
     31 C32          1.6690     4.8280     0.6020 ca         1 Y3M      -0.109000
     32 C31          0.3490     4.7150     1.0070 ca         1 Y3M      -0.131000
     33 C30         -0.4090     3.7350     0.3810 ca         1 Y3M      -0.069200
     34 N27         -1.7130     3.3330     0.5290 na         1 Y3M      -0.254300
     35 H191         4.5670     2.5230     0.8460 h1         1 Y3M       0.049700
     36 H192         5.7360     1.2030     0.9180 h1         1 Y3M       0.049700
     37 H201         6.5620     3.0360    -0.5280 hc         1 Y3M       0.044033
     38 H202         6.3170     1.5850    -1.4960 hc         1 Y3M       0.044033
     39 H203         5.1450     2.9070    -1.5670 hc         1 Y3M       0.044033
     40 H6           2.9120    -0.2940    -2.1100 hn         1 Y3M       0.312700
     41 H5           1.0560    -1.7420    -2.8860 h4         1 Y3M       0.169000
     42 H2          -0.6760    -3.6130    -1.1490 hc         1 Y3M       0.083700
     43 H14         -3.1450    -5.1740     0.7110 ho         1 Y3M       0.427000
     44 H121        -3.2470    -4.4660     2.7810 hc         1 Y3M       0.056200
     45 H122        -1.6460    -5.1360     3.0270 hc         1 Y3M       0.056200
     46 H111        -2.5060    -2.2310     3.4140 hc         1 Y3M       0.053200
     47 H112        -1.9780    -3.3470     4.6620 hc         1 Y3M       0.053200
     48 H101        -0.1220    -1.7790     3.9870 hc         1 Y3M       0.068700
     49 H102         0.2740    -3.4590     3.6900 hc         1 Y3M       0.068700
     50 H21         -2.5950    -2.6750    -2.9250 ha         1 Y3M       0.159000
     51 H22         -4.0190    -0.3300    -2.9520 ha         1 Y3M       0.163000
     52 H27         -2.3820     3.6930     1.1920 hn         1 Y3M       0.312700
     53 H34          1.8610     2.3740    -1.7680 ha         1 Y3M       0.141000
     54 H33          3.2410     4.1200    -0.6740 ha         1 Y3M       0.126000
     55 H32          2.3010     5.5770     1.0620 ha         1 Y3M       0.129000
     56 H31         -0.0650     5.3560     1.7750 ha         1 Y3M       0.135000
@<TRIPOS>BOND
     1     1     2 2   
     2     2     3 1   
     3     2     6 1   
     4     3     4 1   
     5     4     5 1   
     6     4    35 1   
     7     4    36 1   
     8     5    37 1   
     9     5    38 1   
    10     5    39 1   
    11     6     7 2   
    12     6     8 1   
    13     7    10 1   
    14     7    19 1   
    15     8     9 1   
    16     8    40 1   
    17     9    10 2   
    18     9    41 1   
    19    10    11 1   
    20    11    12 1   
    21    11    20 1   
    22    11    42 1   
    23    12    13 2   
    24    12    18 1   
    25    13    14 1   
    26    13    15 1   
    27    14    43 1   
    28    15    16 1   
    29    15    44 1   
    30    15    45 1   
    31    16    17 1   
    32    16    46 1   
    33    16    47 1   
    34    17    18 1   
    35    17    48 1   
    36    17    49 1   
    37    18    19 2   
    38    20    21 1   
    39    20    24 2   
    40    21    22 1   
    41    22    23 2   
    42    22    25 1   
    43    23    24 1   
    44    23    51 1   
    45    24    50 1   
    46    25    26 1   
    47    26    27 2   
    48    26    34 1   
    49    27    28 1   
    50    28    29 ar  
    51    28    33 ar  
    52    29    30 ar  
    53    29    53 1   
    54    30    31 ar  
    55    30    54 1   
    56    31    32 ar  
    57    31    55 1   
    58    32    33 ar  
    59    32    56 1   
    60    33    34 1   
    61    34    52 1   
@<TRIPOS>SUBSTRUCTURE
     1 Y3M         1 TEMP              0 ****  ****    0 ROOT
