@<TRIPOS>MOLECULE
Y3M
   56    61     1     0     0
SMALL
No Charge or Current Charge


@<TRIPOS>ATOM
      1 O17          2.9310     0.7470     1.9960 o          1 Y3M      -0.456000
      2 C16          3.0730     0.5360     0.7990 c          1 Y3M       0.638700
      3 O18          4.1170     1.0470     0.0690 os         1 Y3M      -0.480100
      4 C19          5.0620     1.8950     0.7420 c3         1 Y3M       0.171600
      5 C20          6.1040     2.3390    -0.2980 c3         1 Y3M      -0.099100
      6 C7           2.1750    -0.2990    -0.0260 cc         1 Y3M      -0.211600
      7 C3           1.0510    -0.9510     0.4080 cd         1 Y3M       0.153400
      8 N6           2.2680    -0.5870    -1.3970 na         1 Y3M      -0.069000
      9 C5           1.1950    -1.3810    -1.8140 cc         1 Y3M      -0.132000
     10 C4           0.4520    -1.5910    -0.6860 cd         1 Y3M      -0.205300
     11 C2          -0.8430    -2.3500    -0.5460 c6         1 Y3M       0.059500
     12 C8          -0.9960    -2.8210     0.9160 ce         1 Y3M      -0.282800
     13 C13         -1.7660    -3.8800     1.2530 c2         1 Y3M       0.122900
     14 O14         -2.4800    -4.5860     0.3600 oh         1 Y3M      -0.527100
     15 C12         -1.8850    -4.4000     2.6800 c6         1 Y3M      -0.078200
     16 C11         -1.4610    -3.3350     3.7150 c6         1 Y3M      -0.067400
     17 C10         -0.1160    -2.6900     3.3100 c6         1 Y3M      -0.121700
     18 C9          -0.1830    -2.0700     1.9120 ce         1 Y3M       0.501600
     19 N1           0.4880    -0.9680     1.6650 nf         1 Y3M      -0.530100
     20 C15         -2.0240    -1.4860    -0.9170 cc         1 Y3M       0.177300
     21 O24         -2.3820    -0.4030    -0.1460 os         1 Y3M      -0.194000
     22 C23         -3.3780     0.2270    -0.8440 cc         1 Y3M       0.176300
     23 C22         -3.6420    -0.4000    -2.0280 cd         1 Y3M      -0.110000
     24 C21         -2.7840    -1.5240    -2.0610 cd         1 Y3M      -0.203000
     25 S25         -3.9080     1.8770    -0.5640 ss         1 Y3M      -0.163500
     26 C26         -2.2470     2.4610    -0.6350 cc         1 Y3M       0.413700
     27 N28         -1.3660     2.1730    -1.6070 nd         1 Y3M      -0.551100
     28 C29         -0.2010     2.7800    -1.1370 ca         1 Y3M       0.073400
     29 C34          1.0650     2.7910    -1.7390 ca         1 Y3M      -0.045000
     30 C33          2.1170     3.4630    -1.0760 ca         1 Y3M      -0.139000
     31 C32          1.8900     4.1050     0.1660 ca         1 Y3M      -0.091000
     32 C31          0.6080     4.0830     0.7540 ca         1 Y3M      -0.113000
     33 C30         -0.4070     3.4100     0.0650 ca         1 Y3M      -0.069200
     34 N27         -1.7170     3.2230     0.3940 na         1 Y3M      -0.304600
     35 H191         4.5660     2.7790     1.1620 h1         1 Y3M       0.049700
     36 H192         5.5640     1.3550     1.5560 h1         1 Y3M       0.049700
     37 H201         6.8510     2.9910     0.1700 hc         1 Y3M       0.044033
     38 H202         6.6220     1.4700    -0.7200 hc         1 Y3M       0.044033
     39 H203         5.6250     2.8930    -1.1130 hc         1 Y3M       0.044033
     40 H6           3.0110    -0.2490    -2.0040 hn         1 Y3M       0.363000
     41 H5           1.0560    -1.7040    -2.8390 h4         1 Y3M       0.151000
     42 H2          -0.8100    -3.2280    -1.2070 hc         1 Y3M       0.083700
     43 H14         -2.9280    -5.3130     0.8410 ho         1 Y3M       0.466000
     44 H121        -2.9150    -4.7210     2.8930 hc         1 Y3M       0.056200
     45 H122        -1.2490    -5.2900     2.7910 hc         1 Y3M       0.056200
     46 H111        -2.2350    -2.5560     3.7780 hc         1 Y3M       0.053200
     47 H112        -1.3850    -3.7860     4.7140 hc         1 Y3M       0.053200
     48 H101         0.1440    -1.9150     4.0450 hc         1 Y3M       0.068700
     49 H102         0.6930    -3.4310     3.3390 hc         1 Y3M       0.068700
     50 H21         -2.6840    -2.2400    -2.8700 ha         1 Y3M       0.141000
     51 H22         -4.3190    -0.0630    -2.8060 ha         1 Y3M       0.145000
     52 H27         -2.2000     3.5320     1.2270 hn         1 Y3M       0.363000
     53 H34          1.2310     2.2910    -2.6890 ha         1 Y3M       0.123000
     54 H33          3.1080     3.4840    -1.5220 ha         1 Y3M       0.108000
     55 H32          2.7080     4.6170     0.6680 ha         1 Y3M       0.111000
     56 H31          0.4190     4.5690     1.7090 ha         1 Y3M       0.117000
@<TRIPOS>BOND
     1     1     2 2   
     2     2     3 1   
     3     2     6 1   
     4     3     4 1   
     5     4     5 1   
     6     4    35 1   
     7     4    36 1   
     8     5    37 1   
     9     5    38 1   
    10     5    39 1   
    11     6     7 2   
    12     6     8 1   
    13     7    10 1   
    14     7    19 1   
    15     8     9 1   
    16     8    40 1   
    17     9    10 2   
    18     9    41 1   
    19    10    11 1   
    20    11    12 1   
    21    11    20 1   
    22    11    42 1   
    23    12    13 2   
    24    12    18 1   
    25    13    14 1   
    26    13    15 1   
    27    14    43 1   
    28    15    16 1   
    29    15    44 1   
    30    15    45 1   
    31    16    17 1   
    32    16    46 1   
    33    16    47 1   
    34    17    18 1   
    35    17    48 1   
    36    17    49 1   
    37    18    19 2   
    38    20    21 1   
    39    20    24 2   
    40    21    22 1   
    41    22    23 2   
    42    22    25 1   
    43    23    24 1   
    44    23    51 1   
    45    24    50 1   
    46    25    26 1   
    47    26    27 2   
    48    26    34 1   
    49    27    28 1   
    50    28    29 ar  
    51    28    33 ar  
    52    29    30 ar  
    53    29    53 1   
    54    30    31 ar  
    55    30    54 1   
    56    31    32 ar  
    57    31    55 1   
    58    32    33 ar  
    59    32    56 1   
    60    33    34 1   
    61    34    52 1   
@<TRIPOS>SUBSTRUCTURE
     1 Y3M         1 TEMP              0 ****  ****    0 ROOT
