@<TRIPOS>MOLECULE
Y3N
   23    23     1     0     0
SMALL
abcg2


@<TRIPOS>ATOM
      1 C13         16.5570    13.4530    -1.6930 c3         1 Y3N       0.362300
      2 C01         21.0640    14.7300    -2.7040 c3         1 Y3N      -0.181100
      3 C02         20.5620    13.6970    -1.7320 c          1 Y3N       0.614100
      4 C05         18.6990    12.1530    -1.3540 ca         1 Y3N       0.047000
      5 C06         19.3740    11.0720    -0.7900 ca         1 Y3N      -0.124000
      6 C07         18.6970    10.1180    -0.0600 ca         1 Y3N      -0.027000
      7 C08         17.3190    10.2280     0.1120 ca         1 Y3N      -0.038000
      8 C09         16.6060     9.2370     0.8490 cg         1 Y3N       0.321000
      9 C11         16.6310    11.3040    -0.4380 ca         1 Y3N      -0.011000
     10 C12         17.3140    12.2720    -1.1540 ca         1 Y3N      -0.239300
     11 F14         15.2830    13.4500    -1.3040 f          1 Y3N      -0.112000
     12 F15         16.5530    13.4730    -3.0350 f          1 Y3N      -0.112000
     13 F16         17.0830    14.6130    -1.2870 f          1 Y3N      -0.112000
     14 N04         19.3970    13.0890    -2.1190 ns         1 Y3N      -0.181000
     15 N10         16.0320     8.4380     1.4480 n1         1 Y3N      -0.438000
     16 O03         21.1120    13.4500    -0.6790 o          1 Y3N      -0.564100
     17 H1          22.1470    14.8000    -2.6440 hc         1 Y3N       0.068700
     18 H2          20.7740    14.5200    -3.7320 hc         1 Y3N       0.068700
     19 H3          20.6490    15.7030    -2.4330 hc         1 Y3N       0.068700
     20 H4          20.4350    10.9560    -0.9530 ha         1 Y3N       0.144000
     21 H5          19.2340     9.2790     0.3600 ha         1 Y3N       0.135000
     22 H6          15.5630    11.3760    -0.2880 ha         1 Y3N       0.144000
     23 H7          18.9830    13.4000    -2.9860 hn         1 Y3N       0.168000
@<TRIPOS>BOND
     1     1    10 1   
     2     1    11 1   
     3     1    12 1   
     4     1    13 1   
     5     2     3 1   
     6     2    17 1   
     7     2    18 1   
     8     2    19 1   
     9     3    14 1   
    10     3    16 2   
    11     4     5 ar  
    12     4    10 ar  
    13     4    14 1   
    14     5     6 ar  
    15     5    20 1   
    16     6     7 ar  
    17     6    21 1   
    18     7     8 1   
    19     7     9 ar  
    20     8    15 3   
    21     9    10 ar  
    22     9    22 1   
    23    14    23 1   
@<TRIPOS>SUBSTRUCTURE
     1 Y3N         1 TEMP              0 ****  ****    0 ROOT
