@<TRIPOS>MOLECULE
Y3N
   23    23     1     0     0
SMALL
No Charge or Current Charge


@<TRIPOS>ATOM
      1 C13         16.5290    13.4630    -1.7470 c3         1 Y3N       0.362300
      2 C01         21.0960    14.7590    -2.8130 c3         1 Y3N      -0.181100
      3 C02         20.7670    13.6020    -1.8760 c          1 Y3N       0.614100
      4 C05         18.7160    12.2130    -1.1930 ca         1 Y3N       0.047000
      5 C06         19.3830    11.1120    -0.6120 ca         1 Y3N      -0.124000
      6 C07         18.6670    10.1020     0.0480 ca         1 Y3N      -0.027000
      7 C08         17.2690    10.1740     0.1340 ca         1 Y3N      -0.038000
      8 C09         16.5340     9.1400     0.8090 cg         1 Y3N       0.321000
      9 C11         16.5900    11.2580    -0.4490 ca         1 Y3N      -0.011000
     10 C12         17.2990    12.2850    -1.1190 ca         1 Y3N      -0.239300
     11 F14         15.1900    13.3760    -1.5800 f          1 Y3N      -0.112000
     12 F15         16.7430    13.5450    -3.0800 f          1 Y3N      -0.112000
     13 F16         16.9050    14.6460    -1.2110 f          1 Y3N      -0.112000
     14 N04         19.4290    13.2400    -1.8740 ns         1 Y3N      -0.181000
     15 N10         15.9290     8.3040     1.3550 n1         1 Y3N      -0.438000
     16 O03         21.6310    13.0710    -1.1880 o          1 Y3N      -0.564100
     17 H1          22.1570    15.0330    -2.7900 hc         1 Y3N       0.068700
     18 H2          20.7650    14.5030    -3.8260 hc         1 Y3N       0.068700
     19 H3          20.4530    15.6110    -2.5660 hc         1 Y3N       0.068700
     20 H4          20.4620    11.0100    -0.6750 ha         1 Y3N       0.144000
     21 H5          19.2020     9.2620     0.4880 ha         1 Y3N       0.135000
     22 H6          15.5040    11.2920    -0.3740 ha         1 Y3N       0.144000
     23 H7          18.8490    13.8100    -2.4750 hn         1 Y3N       0.168000
@<TRIPOS>BOND
     1     1    10 1   
     2     1    11 1   
     3     1    12 1   
     4     1    13 1   
     5     2     3 1   
     6     2    17 1   
     7     2    18 1   
     8     2    19 1   
     9     3    14 1   
    10     3    16 2   
    11     4     5 ar  
    12     4    10 ar  
    13     4    14 1   
    14     5     6 ar  
    15     5    20 1   
    16     6     7 ar  
    17     6    21 1   
    18     7     8 1   
    19     7     9 ar  
    20     8    15 3   
    21     9    10 ar  
    22     9    22 1   
    23    14    23 1   
@<TRIPOS>SUBSTRUCTURE
     1 Y3N         1 TEMP              0 ****  ****    0 ROOT
