@<TRIPOS>MOLECULE
Y3O
   45    48     1     0     0
SMALL
abcg2


@<TRIPOS>ATOM
      1 C1          53.0420    16.4110    37.7600 cg         1 Y3O       0.323000
      2 C4          51.9040    13.8140    35.3810 ca         1 Y3O      -0.121000
      3 C5          52.0710    15.0510    35.9790 ca         1 Y3O      -0.071000
      4 C3          52.4980    12.6860    35.9270 ca         1 Y3O      -0.061000
      5 C7          53.4460    14.0130    37.6870 ca         1 Y3O      -0.063000
      6 C11         55.6360     8.1180    36.4550 ca         1 Y3O       0.172900
      7 C6          52.8480    15.1430    37.1330 ca         1 Y3O      -0.023000
      8 C13         54.5860    10.5050    37.0140 ca         1 Y3O      -0.210800
      9 C8          53.2700    12.7710    37.0880 ca         1 Y3O      -0.023800
     10 C9          53.8530    11.5570    37.6660 cc         1 Y3O      -0.041400
     11 C12         54.7260     9.4620    37.9410 ca         1 Y3O       0.144500
     12 C14         55.1640    10.2570    35.7480 ca         1 Y3O       0.413900
     13 C10         53.6450    11.1060    38.9400 cd         1 Y3O       0.106900
     14 C17         55.8140    13.1400    32.7050 c6         1 Y3O      -0.077400
     15 C16         55.5310    13.5710    34.1380 c6         1 Y3O      -0.076400
     16 C2          55.5500    10.7710    33.4190 c6         1 Y3O       0.205800
     17 C18         55.1060    11.8260    32.4120 c6         1 Y3O       0.153500
     18 C15         55.8950    12.4920    35.1530 c6         1 Y3O       0.219500
     19 C19         57.4050    12.3410    35.3360 c3         1 Y3O      -0.121100
     20 N1          53.2000    17.4330    38.2680 n1         1 Y3O      -0.452000
     21 N4          55.2550     8.2650    37.7080 nb         1 Y3O      -0.213000
     22 N3          55.6260     9.0340    35.4920 nb         1 Y3O      -0.278000
     23 N2          54.1750     9.8610    39.1140 na         1 Y3O      -0.313400
     24 N5          55.2630    11.2140    34.7750 nh         1 Y3O      -0.757300
     25 N6          55.4350    11.3560    31.0760 n8         1 Y3O      -0.998200
     26 CL1         52.7780    11.8460    40.1990 cl         1 Y3O      -0.119000
     27 H1          51.3060    13.7270    34.4840 ha         1 Y3O       0.121000
     28 H2          51.6100    15.9350    35.5590 ha         1 Y3O       0.126000
     29 H3          52.3540    11.7230    35.4540 ha         1 Y3O       0.130000
     30 H4          54.0630    14.1090    38.5710 ha         1 Y3O       0.130000
     31 H5          56.0270     7.1440    36.1790 h5         1 Y3O       0.050100
     32 H6          56.8880    13.0090    32.5390 hc         1 Y3O       0.049700
     33 H7          55.4790    13.9140    32.0100 hc         1 Y3O       0.049700
     34 H8          56.0810    14.4810    34.3850 hc         1 Y3O       0.051700
     35 H9          54.4700    13.8090    34.2390 hc         1 Y3O       0.051700
     36 H10         55.0110     9.8410    33.2350 h1         1 Y3O       0.060700
     37 H11         56.6150    10.5560    33.2620 h1         1 Y3O       0.060700
     38 H12         54.0250    11.9860    32.5550 h1         1 Y3O       0.023700
     39 H13         55.4830    12.7960    36.1120 h1         1 Y3O       0.069700
     40 H14         57.6350    11.5810    36.0830 hc         1 Y3O       0.044367
     41 H15         57.9160    12.0700    34.4130 hc         1 Y3O       0.044367
     42 H16         57.8280    13.2840    35.6820 hc         1 Y3O       0.044367
     43 H17         54.1150     9.3060    39.9550 hn         1 Y3O       0.377000
     44 H18         54.8720    10.5440    30.8520 hn         1 Y3O       0.396500
     45 H19         55.1720    12.0630    30.3990 hn         1 Y3O       0.396500
@<TRIPOS>BOND
     1     1     7 1   
     2     1    20 3   
     3     2     3 ar  
     4     2     4 ar  
     5     2    27 1   
     6     3     7 ar  
     7     3    28 1   
     8     4     9 ar  
     9     4    29 1   
    10     5     7 ar  
    11     5     9 ar  
    12     5    30 1   
    13     6    21 ar  
    14     6    22 ar  
    15     6    31 1   
    16     8    10 1   
    17     8    11 ar  
    18     8    12 ar  
    19     9    10 1   
    20    10    13 2   
    21    11    21 ar  
    22    11    23 1   
    23    12    22 ar  
    24    12    24 1   
    25    13    23 1   
    26    13    26 1   
    27    14    15 1   
    28    14    17 1   
    29    14    32 1   
    30    14    33 1   
    31    15    18 1   
    32    15    34 1   
    33    15    35 1   
    34    16    17 1   
    35    16    24 1   
    36    16    36 1   
    37    16    37 1   
    38    17    25 1   
    39    17    38 1   
    40    18    19 1   
    41    18    24 1   
    42    18    39 1   
    43    19    40 1   
    44    19    41 1   
    45    19    42 1   
    46    23    43 1   
    47    25    44 1   
    48    25    45 1   
@<TRIPOS>SUBSTRUCTURE
     1 Y3O         1 TEMP              0 ****  ****    0 ROOT
