@<TRIPOS>MOLECULE
Y3O
   45    48     1     0     0
SMALL
No Charge or Current Charge


@<TRIPOS>ATOM
      1 C1          53.0320    16.3620    37.4540 cg         1 Y3O       0.323000
      2 C4          51.9840    13.6010    35.1400 ca         1 Y3O      -0.121000
      3 C5          52.1440    14.8840    35.6900 ca         1 Y3O      -0.071000
      4 C3          52.5430    12.4850    35.7850 ca         1 Y3O      -0.061000
      5 C7          53.4160    13.9280    37.5360 ca         1 Y3O      -0.063000
      6 C11         55.8990     8.1300    36.6540 ca         1 Y3O       0.172900
      7 C6          52.8630    15.0510    36.8900 ca         1 Y3O      -0.023000
      8 C13         54.6140    10.3960    37.1310 ca         1 Y3O      -0.210800
      9 C8          53.2590    12.6410    36.9870 ca         1 Y3O      -0.023800
     10 C9          53.8220    11.4720    37.6570 cc         1 Y3O      -0.041400
     11 C12         54.6540     9.4080    38.0880 ca         1 Y3O       0.144500
     12 C14         55.2880    10.2210    35.9090 ca         1 Y3O       0.413900
     13 C10         53.4250    11.0940    38.9280 cd         1 Y3O       0.106900
     14 C17         55.7840    13.2890    32.8240 c6         1 Y3O      -0.077400
     15 C16         55.7410    13.6510    34.3280 c6         1 Y3O      -0.076400
     16 C2          55.3720    10.8530    33.4750 c6         1 Y3O       0.205800
     17 C18         54.9180    12.0370    32.5580 c6         1 Y3O       0.153500
     18 C15         56.1480    12.4650    35.2490 c6         1 Y3O       0.219500
     19 C19         57.6750    12.1820    35.2130 c3         1 Y3O      -0.121100
     20 N1          53.1780    17.4250    37.9160 n1         1 Y3O      -0.452000
     21 N4          55.3000     8.2500    37.8620 nb         1 Y3O      -0.213000
     22 N3          55.9310     9.0570    35.6690 nb         1 Y3O      -0.278000
     23 N2          53.9540     9.8210    39.2140 na         1 Y3O      -0.313400
     24 N5          55.3810    11.2260    34.9260 nh         1 Y3O      -0.757300
     25 N6          54.9520    11.6900    31.1140 n8         1 Y3O      -0.998200
     26 Cl1         52.3560    11.9290    40.0100 cl         1 Y3O      -0.119000
     27 H1          51.4320    13.4720    34.2110 ha         1 Y3O       0.121000
     28 H2          51.7110    15.7450    35.1840 ha         1 Y3O       0.126000
     29 H3          52.4220    11.4940    35.3530 ha         1 Y3O       0.130000
     30 H4          53.9730    14.0530    38.4620 ha         1 Y3O       0.130000
     31 H5          56.4200     7.1940    36.4600 h5         1 Y3O       0.050100
     32 H6          56.8210    13.1070    32.5100 hc         1 Y3O       0.049700
     33 H7          55.4180    14.1380    32.2310 hc         1 Y3O       0.049700
     34 H8          56.3890    14.5160    34.5240 hc         1 Y3O       0.051700
     35 H9          54.7260    13.9740    34.5880 hc         1 Y3O       0.051700
     36 H10         54.6850    10.0090    33.3120 h1         1 Y3O       0.060700
     37 H11         56.3730    10.5190    33.1650 h1         1 Y3O       0.060700
     38 H12         53.8730    12.2820    32.8010 h1         1 Y3O       0.023700
     39 H13         55.9170    12.7740    36.2800 h1         1 Y3O       0.069700
     40 H14         57.9470    11.3960    35.9270 hc         1 Y3O       0.044367
     41 H15         58.0140    11.8630    34.2210 hc         1 Y3O       0.044367
     42 H16         58.2440    13.0790    35.4850 hc         1 Y3O       0.044367
     43 H17         53.8100     9.2860    40.0620 hn         1 Y3O       0.377000
     44 H18         54.2380    10.9760    30.9270 hn         1 Y3O       0.396500
     45 H19         54.6230    12.4990    30.5740 hn         1 Y3O       0.396500
@<TRIPOS>BOND
     1     1     7 1   
     2     1    20 3   
     3     2     3 ar  
     4     2     4 ar  
     5     2    27 1   
     6     3     7 ar  
     7     3    28 1   
     8     4     9 ar  
     9     4    29 1   
    10     5     7 ar  
    11     5     9 ar  
    12     5    30 1   
    13     6    21 ar  
    14     6    22 ar  
    15     6    31 1   
    16     8    10 1   
    17     8    11 ar  
    18     8    12 ar  
    19     9    10 1   
    20    10    13 2   
    21    11    21 ar  
    22    11    23 1   
    23    12    22 ar  
    24    12    24 1   
    25    13    23 1   
    26    13    26 1   
    27    14    15 1   
    28    14    17 1   
    29    14    32 1   
    30    14    33 1   
    31    15    18 1   
    32    15    34 1   
    33    15    35 1   
    34    16    17 1   
    35    16    24 1   
    36    16    36 1   
    37    16    37 1   
    38    17    25 1   
    39    17    38 1   
    40    18    19 1   
    41    18    24 1   
    42    18    39 1   
    43    19    40 1   
    44    19    41 1   
    45    19    42 1   
    46    23    43 1   
    47    25    44 1   
    48    25    45 1   
@<TRIPOS>SUBSTRUCTURE
     1 Y3O         1 TEMP              0 ****  ****    0 ROOT
