@<TRIPOS>MOLECULE
Y3P
   11    10     1     0     0
SMALL
No Charge or Current Charge


@<TRIPOS>ATOM
      1 C1          24.7150    49.4230    35.6070 c          1 Y3P       0.709200
      2 O1          25.7420    48.9400    35.1400 o          1 Y3P      -0.749000
      3 C2          24.2420    50.8240    35.1280 ce         1 Y3P       0.064900
      4 O2          24.0480    48.8270    36.4460 o          1 Y3P      -0.749000
      5 C3          23.1170    51.4630    35.5750 cf         1 Y3P      -0.506200
      6 O3          24.9860    51.4820    34.1960 oh         1 Y3P      -0.641100
      7 C4          22.6290    52.7900    35.1500 c          1 Y3P       0.715200
      8 O4          23.2770    53.4000    34.3170 o          1 Y3P      -0.766000
      9 O5          21.6040    53.1990    35.6600 o          1 Y3P      -0.766000
     10 HC3         22.5040    50.9610    36.3190 ha         1 Y3P       0.169000
     11 HO3         24.4560    52.3270    34.0860 ho         1 Y3P       0.519000
@<TRIPOS>BOND
     1     1     2 1   
     2     1     3 1   
     3     1     4 1   
     4     3     5 2   
     5     3     6 1   
     6     5     7 1   
     7     5    10 1   
     8     6    11 1   
     9     7     8 1   
    10     7     9 1   
@<TRIPOS>SUBSTRUCTURE
     1 Y3P         1 TEMP              0 ****  ****    0 ROOT
