@<TRIPOS>MOLECULE
Y3P
   11    10     1     0     0
SMALL
abcg2


@<TRIPOS>ATOM
      1 C1          24.7060    49.4600    35.5930 c          1 Y3P       0.709200
      2 O1          25.8320    49.1210    35.1890 o          1 Y3P      -0.749000
      3 C2          24.2040    50.8320    35.1230 ce         1 Y3P       0.064900
      4 O2          23.9420    48.8200    36.3390 o          1 Y3P      -0.749000
      5 C3          23.0900    51.4130    35.6270 cf         1 Y3P      -0.506200
      6 O3          24.9400    51.4360    34.1980 oh         1 Y3P      -0.641100
      7 C4          22.6520    52.7560    35.1770 c          1 Y3P       0.715200
      8 O4          23.3700    53.3050    34.2680 o          1 Y3P      -0.766000
      9 O5          21.6480    53.2790    35.6810 o          1 Y3P      -0.766000
     10 HC3         22.5120    50.8910    36.3760 ha         1 Y3P       0.169000
     11 HO3         24.4240    52.3220    34.0520 ho         1 Y3P       0.519000
@<TRIPOS>BOND
     1     1     2 1   
     2     1     3 1   
     3     1     4 1   
     4     3     5 2   
     5     3     6 1   
     6     5     7 1   
     7     5    10 1   
     8     6    11 1   
     9     7     8 1   
    10     7     9 1   
@<TRIPOS>SUBSTRUCTURE
     1 Y3P         1 TEMP              0 ****  ****    0 ROOT
