@<TRIPOS>MOLECULE
Y3R
   68    70     1     0     0
SMALL
No Charge or Current Charge


@<TRIPOS>ATOM
      1 C10        -29.4510   -74.7090    -8.9940 ca         1 Y3R      -0.011000
      2 C15        -27.6700   -76.1510    -7.7570 cc         1 Y3R      -0.120000
      3 C17        -30.9560   -71.1940    -3.7640 ca         1 Y3R      -0.143600
      4 C20        -32.3770   -72.9040    -1.3210 c3         1 Y3R      -0.151400
      5 C21        -33.5750   -73.3310    -0.4660 c          1 Y3R       0.605100
      6 C24        -35.1120   -73.0190     2.3860 c          1 Y3R       0.606100
      7 C26        -37.6040   -73.5130     2.6710 c3         1 Y3R      -0.135400
      8 C02        -31.9730   -71.9370    -4.6140 c          1 Y3R       0.607700
      9 C04        -32.2240   -73.4630    -6.6040 c3         1 Y3R       0.164000
     10 C05        -32.7180   -74.7770    -5.9630 c3         1 Y3R      -0.105100
     11 C06        -31.4070   -73.7080    -7.8710 ca         1 Y3R      -0.093300
     12 C07        -31.8240   -73.1510    -9.0920 ca         1 Y3R      -0.092000
     13 C08        -31.0740   -73.3680   -10.2560 ca         1 Y3R      -0.108000
     14 C09        -29.9000   -74.1390   -10.2100 ca         1 Y3R      -0.095000
     15 C11        -28.2160   -75.5230    -8.9130 cc         1 Y3R      -0.054000
     16 C12        -27.4480   -75.7450   -10.0350 cd         1 Y3R      -0.240000
     17 C14        -26.5090   -76.8410    -7.9830 cd         1 Y3R      -0.248000
     18 C16        -30.2240   -74.4770    -7.8320 ca         1 Y3R      -0.088000
     19 C18        -31.1640   -70.9090    -2.3800 ca         1 Y3R      -0.035300
     20 C19        -32.3940   -71.3800    -1.5950 c3         1 Y3R      -0.032100
     21 C25        -36.1930   -73.5720     3.3210 c3         1 Y3R      -0.146400
     22 C27        -38.6830   -74.0480     3.6140 c          1 Y3R       0.594100
     23 C29        -40.3510   -73.3570     5.2380 c3         1 Y3R       0.167600
     24 C30        -41.6380   -73.6070     4.4250 c3         1 Y3R      -0.122100
     25 C34        -30.1710   -70.2090    -1.6610 ca         1 Y3R      -0.114000
     26 C35        -28.9880   -69.7850    -2.2820 ca         1 Y3R      -0.093000
     27 C36        -28.7780   -70.0620    -3.6370 ca         1 Y3R      -0.116000
     28 C37        -29.7490   -70.7600    -4.3700 ca         1 Y3R      -0.093000
     29 N03        -31.4460   -72.6700    -5.6550 ns         1 Y3R      -0.512900
     30 N22        -33.2730   -73.6700     0.8440 ns         1 Y3R      -0.382500
     31 N23        -34.2620   -73.9670     1.8360 ns         1 Y3R      -0.372500
     32 O01        -33.1820   -71.8580    -4.4490 o          1 Y3R      -0.573100
     33 O28        -39.2790   -73.0390     4.3280 os         1 Y3R      -0.446100
     34 O31        -38.9530   -75.2360     3.7240 o          1 Y3R      -0.496000
     35 O32        -34.9860   -71.8210     2.1670 o          1 Y3R      -0.575100
     36 O33        -34.7110   -73.4050    -0.9160 o          1 Y3R      -0.567100
     37 S13        -26.0260   -76.7430    -9.6810 ss         1 Y3R       0.208000
     38 H151       -28.1300   -76.0930    -6.7760 ha         1 Y3R       0.133000
     39 H202       -32.4210   -73.4410    -2.2750 hc         1 Y3R       0.058700
     40 H201       -31.4410   -73.1500    -0.8050 hc         1 Y3R       0.058700
     41 H261       -37.8220   -72.4620     2.4440 hc         1 Y3R       0.090700
     42 H041       -33.1120   -72.8770    -6.8790 h1         1 Y3R       0.073700
     43 H051       -33.2820   -75.3680    -6.6940 hc         1 Y3R       0.044367
     44 H053       -31.8790   -75.3840    -5.6030 hc         1 Y3R       0.044367
     45 H052       -33.3790   -74.5710    -5.1130 hc         1 Y3R       0.044367
     46 H071       -32.7300   -72.5500    -9.1430 ha         1 Y3R       0.114000
     47 H081       -31.4020   -72.9370   -11.1990 ha         1 Y3R       0.114000
     48 H091       -29.3550   -74.2790   -11.1360 ha         1 Y3R       0.114000
     49 H121       -27.5920   -75.4050   -11.0510 h4         1 Y3R       0.151000
     50 H141       -25.9070   -77.3980    -7.2750 h4         1 Y3R       0.150000
     51 H161       -29.9120   -74.8920    -6.8790 ha         1 Y3R       0.107000
     52 H192       -33.3210   -71.0960    -2.1040 hc         1 Y3R       0.080700
     53 H191       -32.4430   -70.8600    -0.6300 hc         1 Y3R       0.080700
     54 H251       -36.2050   -72.9640     4.2340 hc         1 Y3R       0.072700
     55 H291       -40.1100   -74.2330     5.8560 h1         1 Y3R       0.059200
     56 H292       -40.5270   -72.5110     5.9140 h1         1 Y3R       0.059200
     57 H302       -42.4850   -73.7650     5.1030 hc         1 Y3R       0.048367
     58 H301       -41.8670   -72.7430     3.7900 hc         1 Y3R       0.048367
     59 H303       -41.5450   -74.4950     3.7900 hc         1 Y3R       0.048367
     60 H341       -30.3100   -69.9950    -0.6030 ha         1 Y3R       0.118000
     61 H351       -28.2350   -69.2460    -1.7120 ha         1 Y3R       0.117000
     62 H361       -27.8620   -69.7320    -4.1240 ha         1 Y3R       0.117000
     63 H371       -29.5610   -70.9360    -5.4270 ha         1 Y3R       0.114000
     64 H031       -30.4390   -72.6830    -5.7360 hn         1 Y3R       0.315500
     65 H221       -32.3150   -73.5510     1.1650 hn         1 Y3R       0.335500
     66 H231       -34.4460   -74.9490     2.0280 hn         1 Y3R       0.335500
     67 H262       -37.6040   -74.1110     1.7530 hc         1 Y3R       0.090700
     68 H252       -35.9700   -74.6150     3.5770 hc         1 Y3R       0.072700
@<TRIPOS>BOND
     1     1    14 ar  
     2     1    15 1   
     3     1    18 ar  
     4     2    15 1   
     5     2    17 2   
     6     2    38 1   
     7     3     8 1   
     8     3    19 ar  
     9     3    28 ar  
    10     4     5 1   
    11     4    20 1   
    12     4    39 1   
    13     4    40 1   
    14     5    30 1   
    15     5    36 2   
    16     6    21 1   
    17     6    31 1   
    18     6    35 2   
    19     7    21 1   
    20     7    22 1   
    21     7    41 1   
    22     7    67 1   
    23     8    29 1   
    24     8    32 2   
    25     9    10 1   
    26     9    11 1   
    27     9    29 1   
    28     9    42 1   
    29    10    43 1   
    30    10    44 1   
    31    10    45 1   
    32    11    12 ar  
    33    11    18 ar  
    34    12    13 ar  
    35    12    46 1   
    36    13    14 ar  
    37    13    47 1   
    38    14    48 1   
    39    15    16 2   
    40    16    37 1   
    41    16    49 1   
    42    17    37 1   
    43    17    50 1   
    44    18    51 1   
    45    19    20 1   
    46    19    25 ar  
    47    20    52 1   
    48    20    53 1   
    49    21    54 1   
    50    21    68 1   
    51    22    33 1   
    52    22    34 2   
    53    23    24 1   
    54    23    33 1   
    55    23    55 1   
    56    23    56 1   
    57    24    57 1   
    58    24    58 1   
    59    24    59 1   
    60    25    26 ar  
    61    25    60 1   
    62    26    27 ar  
    63    26    61 1   
    64    27    28 ar  
    65    27    62 1   
    66    28    63 1   
    67    29    64 1   
    68    30    31 1   
    69    30    65 1   
    70    31    66 1   
@<TRIPOS>SUBSTRUCTURE
     1 Y3R         1 TEMP              0 ****  ****    0 ROOT
