@<TRIPOS>MOLECULE
Y3R
   68    70     1     0     0
SMALL
abcg2


@<TRIPOS>ATOM
      1 C10        -30.4730   -74.0770    -8.7030 ca         1 Y3R      -0.011000
      2 C15        -28.2300   -72.8440    -8.6090 cc         1 Y3R      -0.120000
      3 C17        -30.0530   -72.3240    -3.4730 ca         1 Y3R      -0.143600
      4 C20        -31.9240   -73.0800    -0.9480 c3         1 Y3R      -0.151400
      5 C21        -33.3210   -73.2130    -0.3880 c          1 Y3R       0.605100
      6 C24        -35.1390   -73.2580     2.1820 c          1 Y3R       0.606100
      7 C26        -37.4780   -72.5110     2.6560 c3         1 Y3R      -0.135400
      8 C02        -31.1160   -73.0500    -4.2440 c          1 Y3R       0.607700
      9 C04        -31.7150   -75.1950    -5.2700 c3         1 Y3R       0.164000
     10 C05        -31.2990   -76.6500    -5.0790 c3         1 Y3R      -0.105100
     11 C06        -31.6880   -74.8210    -6.7370 ca         1 Y3R      -0.093300
     12 C07        -32.8360   -74.9640    -7.5080 ca         1 Y3R      -0.092000
     13 C08        -32.8050   -74.6730    -8.8650 ca         1 Y3R      -0.108000
     14 C09        -31.6360   -74.2260    -9.4600 ca         1 Y3R      -0.095000
     15 C11        -29.2240   -73.5950    -9.3120 cc         1 Y3R      -0.054000
     16 C12        -28.8640   -73.8020   -10.6150 cd         1 Y3R      -0.240000
     17 C14        -27.1690   -72.5060    -9.3880 cd         1 Y3R      -0.248000
     18 C16        -30.5170   -74.3860    -7.3440 ca         1 Y3R      -0.088000
     19 C18        -30.3450   -71.6600    -2.2750 ca         1 Y3R      -0.035300
     20 C19        -31.7020   -71.7290    -1.6290 c3         1 Y3R      -0.032100
     21 C25        -36.4820   -73.6560     2.7500 c3         1 Y3R      -0.146400
     22 C27        -38.7880   -72.8260     3.3290 c          1 Y3R       0.594100
     23 C29        -40.9740   -71.9760     3.7230 c3         1 Y3R       0.167600
     24 C30        -41.8950   -72.8480     2.8970 c3         1 Y3R      -0.122100
     25 C34        -29.3140   -70.9770    -1.6360 ca         1 Y3R      -0.114000
     26 C35        -28.0330   -70.9290    -2.1680 ca         1 Y3R      -0.093000
     27 C36        -27.7560   -71.5840    -3.3580 ca         1 Y3R      -0.116000
     28 C37        -28.7660   -72.2830    -4.0020 ca         1 Y3R      -0.093000
     29 N03        -30.8520   -74.3480    -4.4700 ns         1 Y3R      -0.512900
     30 N22        -33.3960   -73.9570     0.7460 ns         1 Y3R      -0.382500
     31 N23        -34.5840   -74.1860     1.3620 ns         1 Y3R      -0.372500
     32 O01        -32.1290   -72.4970    -4.6450 o          1 Y3R      -0.573100
     33 O28        -39.6680   -71.8530     3.1370 os         1 Y3R      -0.446100
     34 O31        -39.0100   -73.8210     3.9730 o          1 Y3R      -0.496000
     35 O32        -34.5860   -72.2120     2.4580 o          1 Y3R      -0.575100
     36 O33        -34.3010   -72.7280    -0.9170 o          1 Y3R      -0.567100
     37 S13        -27.3510   -73.0970   -10.9860 ss         1 Y3R       0.208000
     38 H151       -28.3170   -72.5490    -7.5730 ha         1 Y3R       0.133000
     39 H202       -31.7870   -73.8970    -1.6640 hc         1 Y3R       0.058700
     40 H201       -31.1740   -73.2360    -0.1690 hc         1 Y3R       0.058700
     41 H261       -37.0700   -71.6070     3.1140 hc         1 Y3R       0.090700
     42 H041       -32.7410   -75.0810    -4.9090 h1         1 Y3R       0.073700
     43 H051       -31.9560   -77.3050    -5.6480 hc         1 Y3R       0.044367
     44 H053       -30.2770   -76.8130    -5.4270 hc         1 Y3R       0.044367
     45 H052       -31.3580   -76.9390    -4.0290 hc         1 Y3R       0.044367
     46 H071       -33.7580   -75.2960    -7.0460 ha         1 Y3R       0.114000
     47 H081       -33.7040   -74.7760    -9.4590 ha         1 Y3R       0.114000
     48 H091       -31.6370   -73.9700   -10.5120 ha         1 Y3R       0.114000
     49 H121       -29.4040   -74.3520   -11.3710 h4         1 Y3R       0.151000
     50 H141       -26.2990   -71.9330    -9.1100 h4         1 Y3R       0.150000
     51 H161       -29.6170   -74.2900    -6.7470 ha         1 Y3R       0.107000
     52 H192       -32.4860   -71.5560    -2.3640 hc         1 Y3R       0.080700
     53 H191       -31.7850   -70.9360    -0.8850 hc         1 Y3R       0.080700
     54 H251       -36.3200   -73.9300     3.7960 hc         1 Y3R       0.072700
     55 H291       -40.8940   -72.3450     4.7460 h1         1 Y3R       0.059200
     56 H292       -41.3510   -70.9560     3.7650 h1         1 Y3R       0.059200
     57 H302       -42.8920   -72.8300     3.3400 hc         1 Y3R       0.048367
     58 H301       -41.9790   -72.4790     1.8750 hc         1 Y3R       0.048367
     59 H303       -41.5630   -73.8840     2.8680 hc         1 Y3R       0.048367
     60 H341       -29.5230   -70.4710    -0.7010 ha         1 Y3R       0.118000
     61 H351       -27.2550   -70.3820    -1.6520 ha         1 Y3R       0.117000
     62 H361       -26.7630   -71.5510    -3.7860 ha         1 Y3R       0.117000
     63 H371       -28.5510   -72.7880    -4.9370 ha         1 Y3R       0.114000
     64 H031       -30.0070   -74.7470    -4.0920 hn         1 Y3R       0.315500
     65 H221       -32.5640   -74.2990     1.2030 hn         1 Y3R       0.335500
     66 H231       -35.1020   -75.0020     1.0710 hn         1 Y3R       0.335500
     67 H262       -37.6740   -72.2550     1.6110 hc         1 Y3R       0.090700
     68 H252       -36.8740   -74.5450     2.2530 hc         1 Y3R       0.072700
@<TRIPOS>BOND
     1     1    14 ar  
     2     1    15 1   
     3     1    18 ar  
     4     2    15 1   
     5     2    17 2   
     6     2    38 1   
     7     3     8 1   
     8     3    19 ar  
     9     3    28 ar  
    10     4     5 1   
    11     4    20 1   
    12     4    39 1   
    13     4    40 1   
    14     5    30 1   
    15     5    36 2   
    16     6    21 1   
    17     6    31 1   
    18     6    35 2   
    19     7    21 1   
    20     7    22 1   
    21     7    41 1   
    22     7    67 1   
    23     8    29 1   
    24     8    32 2   
    25     9    10 1   
    26     9    11 1   
    27     9    29 1   
    28     9    42 1   
    29    10    43 1   
    30    10    44 1   
    31    10    45 1   
    32    11    12 ar  
    33    11    18 ar  
    34    12    13 ar  
    35    12    46 1   
    36    13    14 ar  
    37    13    47 1   
    38    14    48 1   
    39    15    16 2   
    40    16    37 1   
    41    16    49 1   
    42    17    37 1   
    43    17    50 1   
    44    18    51 1   
    45    19    20 1   
    46    19    25 ar  
    47    20    52 1   
    48    20    53 1   
    49    21    54 1   
    50    21    68 1   
    51    22    33 1   
    52    22    34 2   
    53    23    24 1   
    54    23    33 1   
    55    23    55 1   
    56    23    56 1   
    57    24    57 1   
    58    24    58 1   
    59    24    59 1   
    60    25    26 ar  
    61    25    60 1   
    62    26    27 ar  
    63    26    61 1   
    64    27    28 ar  
    65    27    62 1   
    66    28    63 1   
    67    29    64 1   
    68    30    31 1   
    69    30    65 1   
    70    31    66 1   
@<TRIPOS>SUBSTRUCTURE
     1 Y3R         1 TEMP              0 ****  ****    0 ROOT
