@<TRIPOS>MOLECULE
Y3T
   51    52     1     0     0
SMALL
No Charge or Current Charge


@<TRIPOS>ATOM
      1 C02         10.5070    16.3150     1.3030 c          1 Y3T       0.625700
      2 C03         11.9850    15.9820     1.4350 ca         1 Y3T      -0.168600
      3 C04         12.7670    15.5440     0.3350 ca         1 Y3T      -0.090000
      4 C05         14.1400    15.2440     0.4920 ca         1 Y3T      -0.049000
      5 C06         14.7390    15.3790     1.7620 ca         1 Y3T       0.113100
      6 C07         13.9690    15.8140     2.8590 ca         1 Y3T      -0.184000
      7 C12          8.6480    16.3740    -0.4820 ca         1 Y3T      -0.028000
      8 C13          7.5440    16.7670     0.3110 ca         1 Y3T      -0.088000
      9 C14          6.2770    16.9450    -0.2720 ca         1 Y3T       0.090000
     10 C15          6.1000    16.7320    -1.6510 ca         1 Y3T       0.155000
     11 C16          7.1880    16.3410    -2.4460 ca         1 Y3T      -0.122000
     12 C17          8.4550    16.1630    -1.8620 ca         1 Y3T      -0.134000
     13 C20         16.7880    15.1790     3.1390 c3         1 Y3T       0.153900
     14 C21         14.7380    14.5870    -1.9320 c          1 Y3T       0.605100
     15 C22         15.9640    14.0960    -2.7090 c3         1 Y3T      -0.153400
     16 C24         17.0460    12.0480    -3.8850 c3         1 Y3T       0.161800
     17 C27         19.4870    11.8510    -4.1180 c3         1 Y3T       0.148600
     18 O25         13.6680    14.7930    -2.4930 o          1 Y3T      -0.593100
     19 C08         12.6080    16.1120     2.6950 ca         1 Y3T      -0.043000
     20 C23         15.8380    12.5970    -3.0870 c3         1 Y3T      -0.062400
     21 C28         18.4580    11.4230    -1.9320 c3         1 Y3T       0.148600
     22 F18          4.8850    16.9000    -2.2220 f          1 Y3T      -0.163000
     23 N01         14.9700    14.7980    -0.5790 ns         1 Y3T      -0.144000
     24 N11          9.9600    16.1720     0.0320 ns         1 Y3T      -0.148000
     25 N26         18.3650    12.1720    -3.2090 n3         1 Y3T      -0.719600
     26 O09         16.0840    15.0750     1.8870 os         1 Y3T      -0.362100
     27 O10          9.8550    16.6870     2.2730 o          1 Y3T      -0.575100
     28 Cl19         4.9200    17.4350     0.7430 cl         1 Y3T      -0.168000
     29 H1          12.3070    15.4330    -0.6390 ha         1 Y3T       0.154000
     30 H2          14.4060    15.9270     3.8470 ha         1 Y3T       0.124000
     31 H3           7.6410    16.9380     1.3780 ha         1 Y3T       0.156000
     32 H4           7.0480    16.1770    -3.5110 ha         1 Y3T       0.135000
     33 H5           9.2910    15.8590    -2.4890 ha         1 Y3T       0.119000
     34 H6          17.8380    14.8900     3.0090 h1         1 Y3T       0.045700
     35 H7          16.7630    16.2090     3.5160 h1         1 Y3T       0.045700
     36 H8          16.3440    14.5150     3.8920 h1         1 Y3T       0.045700
     37 H9          16.8670    14.2290    -2.1020 hc         1 Y3T       0.069200
     38 H10         16.0520    14.6800    -3.6330 hc         1 Y3T       0.069200
     39 H11         16.8510    10.9940    -4.1250 h1         1 Y3T       0.033700
     40 H12         17.0780    12.5880    -4.8410 h1         1 Y3T       0.033700
     41 H13         20.4520    12.0310    -3.6240 h1         1 Y3T       0.031033
     42 H14         19.4510    10.7990    -4.4300 h1         1 Y3T       0.031033
     43 H15         19.4500    12.4790    -5.0190 h1         1 Y3T       0.031033
     44 H16         12.0370    16.4460     3.5600 ha         1 Y3T       0.137000
     45 H17         14.9360    12.4580    -3.6960 hc         1 Y3T       0.055200
     46 H18         15.6880    11.9980    -2.1810 hc         1 Y3T       0.055200
     47 H19         19.4510    11.5510    -1.4810 h1         1 Y3T       0.031033
     48 H20         17.7200    11.7820    -1.2050 h1         1 Y3T       0.031033
     49 H21         18.2920    10.3500    -2.0950 h1         1 Y3T       0.031033
     50 H22         15.9170    14.5930    -0.2880 hn         1 Y3T       0.169000
     51 H23         10.6220    15.8640    -0.6670 hn         1 Y3T       0.161000
@<TRIPOS>BOND
     1     1     2 1   
     2     1    24 1   
     3     1    27 2   
     4     2     3 ar  
     5     2    19 ar  
     6     3     4 ar  
     7     3    29 1   
     8     4     5 ar  
     9     4    23 1   
    10     5     6 ar  
    11     5    26 1   
    12     6    19 ar  
    13     6    30 1   
    14     7     8 ar  
    15     7    12 ar  
    16     7    24 1   
    17     8     9 ar  
    18     8    31 1   
    19     9    10 ar  
    20     9    28 1   
    21    10    11 ar  
    22    10    22 1   
    23    11    12 ar  
    24    11    32 1   
    25    12    33 1   
    26    13    26 1   
    27    13    34 1   
    28    13    35 1   
    29    13    36 1   
    30    14    15 1   
    31    14    18 2   
    32    14    23 1   
    33    15    20 1   
    34    15    37 1   
    35    15    38 1   
    36    16    20 1   
    37    16    25 1   
    38    16    39 1   
    39    16    40 1   
    40    17    25 1   
    41    17    41 1   
    42    17    42 1   
    43    17    43 1   
    44    19    44 1   
    45    20    45 1   
    46    20    46 1   
    47    21    25 1   
    48    21    47 1   
    49    21    48 1   
    50    21    49 1   
    51    23    50 1   
    52    24    51 1   
@<TRIPOS>SUBSTRUCTURE
     1 Y3T         1 TEMP              0 ****  ****    0 ROOT
