@<TRIPOS>MOLECULE
Y3T
   51    52     1     0     0
SMALL
abcg2


@<TRIPOS>ATOM
      1 C02         10.6770    16.6010     1.0190 c          1 Y3T       0.625700
      2 C03         12.0720    16.1940     1.3390 ca         1 Y3T      -0.168600
      3 C04         12.9220    15.6430     0.3780 ca         1 Y3T      -0.090000
      4 C05         14.2280    15.3000     0.6980 ca         1 Y3T      -0.049000
      5 C06         14.6780    15.4960     2.0230 ca         1 Y3T       0.113100
      6 C07         13.8300    16.0470     2.9720 ca         1 Y3T      -0.184000
      7 C12          8.7530    16.0240    -0.4080 ca         1 Y3T      -0.028000
      8 C13          8.1540    17.2770    -0.5270 ca         1 Y3T      -0.088000
      9 C14          6.8630    17.3720    -1.0200 ca         1 Y3T       0.090000
     10 C15          6.1710    16.2360    -1.4030 ca         1 Y3T       0.155000
     11 C16          6.7580    14.9930    -1.2990 ca         1 Y3T      -0.122000
     12 C17          8.0430    14.8880    -0.7950 ca         1 Y3T      -0.134000
     13 C20         16.4760    15.2710     3.5650 c3         1 Y3T       0.153900
     14 C21         15.0340    14.5760    -1.5420 c          1 Y3T       0.605100
     15 C22         16.2970    14.0590    -2.1960 c3         1 Y3T      -0.153400
     16 C24         17.3160    12.8550    -4.1770 c3         1 Y3T       0.161800
     17 C27         19.4820    11.8740    -3.9970 c3         1 Y3T       0.148600
     18 O25         14.0190    14.8160    -2.1700 o          1 Y3T      -0.593100
     19 C08         12.5370    16.4090     2.6270 ca         1 Y3T      -0.043000
     20 C23         16.0330    13.2900    -3.4820 c3         1 Y3T      -0.062400
     21 C28         17.6160    10.7690    -3.0140 c3         1 Y3T       0.148600
     22 F18          4.9280    16.3520    -1.8770 f          1 Y3T      -0.163000
     23 N01         15.1540    14.7670    -0.2000 ns         1 Y3T      -0.144000
     24 N11         10.0640    15.8610     0.0510 ns         1 Y3T      -0.148000
     25 N26         18.1980    12.0490    -3.3540 n3         1 Y3T      -0.719600
     26 O09         15.9450    15.1240     2.2600 os         1 Y3T      -0.362100
     27 O10         10.1280    17.5200     1.5990 o          1 Y3T      -0.575100
     28 CL19         6.1040    18.9110    -1.1750 cl         1 Y3T      -0.168000
     29 H1          12.5810    15.5080    -0.6360 ha         1 Y3T       0.154000
     30 H2          14.1650    16.2030     3.9880 ha         1 Y3T       0.124000
     31 H3           8.6810    18.1800    -0.2590 ha         1 Y3T       0.156000
     32 H4           6.2110    14.1090    -1.6000 ha         1 Y3T       0.135000
     33 H5           8.4990    13.9100    -0.7040 ha         1 Y3T       0.119000
     34 H6          17.4990    14.9080     3.5220 h1         1 Y3T       0.045700
     35 H7          16.4820    16.3170     3.8810 h1         1 Y3T       0.045700
     36 H8          15.9180    14.6810     4.2950 h1         1 Y3T       0.045700
     37 H9          16.8630    13.4460    -1.4920 hc         1 Y3T       0.069200
     38 H10         16.9330    14.9250    -2.4120 hc         1 Y3T       0.069200
     39 H11         17.0490    12.3320    -5.1120 h1         1 Y3T       0.033700
     40 H12         17.8680    13.7520    -4.4740 h1         1 Y3T       0.033700
     41 H13         20.1560    11.3180    -3.3440 h1         1 Y3T       0.031033
     42 H14         19.4200    11.3300    -4.9530 h1         1 Y3T       0.031033
     43 H15         19.9380    12.8450    -4.1980 h1         1 Y3T       0.031033
     44 H16         11.8920    16.8440     3.3780 ha         1 Y3T       0.137000
     45 H17         15.4810    13.9190    -4.1830 hc         1 Y3T       0.055200
     46 H18         15.3900    12.4310    -3.2780 hc         1 Y3T       0.055200
     47 H19         18.3170    10.1950    -2.4060 h1         1 Y3T       0.031033
     48 H20         16.7080    10.8950    -2.4240 h1         1 Y3T       0.031033
     49 H21         17.3610    10.1610    -3.8970 h1         1 Y3T       0.031033
     50 H22         16.0490    14.5310     0.2020 hn         1 Y3T       0.169000
     51 H23         10.5130    14.9990    -0.2220 hn         1 Y3T       0.161000
@<TRIPOS>BOND
     1     1     2 1   
     2     1    24 1   
     3     1    27 2   
     4     2     3 ar  
     5     2    19 ar  
     6     3     4 ar  
     7     3    29 1   
     8     4     5 ar  
     9     4    23 1   
    10     5     6 ar  
    11     5    26 1   
    12     6    19 ar  
    13     6    30 1   
    14     7     8 ar  
    15     7    12 ar  
    16     7    24 1   
    17     8     9 ar  
    18     8    31 1   
    19     9    10 ar  
    20     9    28 1   
    21    10    11 ar  
    22    10    22 1   
    23    11    12 ar  
    24    11    32 1   
    25    12    33 1   
    26    13    26 1   
    27    13    34 1   
    28    13    35 1   
    29    13    36 1   
    30    14    15 1   
    31    14    18 2   
    32    14    23 1   
    33    15    20 1   
    34    15    37 1   
    35    15    38 1   
    36    16    20 1   
    37    16    25 1   
    38    16    39 1   
    39    16    40 1   
    40    17    25 1   
    41    17    41 1   
    42    17    42 1   
    43    17    43 1   
    44    19    44 1   
    45    20    45 1   
    46    20    46 1   
    47    21    25 1   
    48    21    47 1   
    49    21    48 1   
    50    21    49 1   
    51    23    50 1   
    52    24    51 1   
@<TRIPOS>SUBSTRUCTURE
     1 Y3T         1 TEMP              0 ****  ****    0 ROOT
