@<TRIPOS>MOLECULE
Y3U
   58    60     1     0     0
SMALL
bcc


@<TRIPOS>ATOM
      1 C3U         -0.0890    -3.8880     0.1480 c3         1 Y3U       0.081300
      2 N3           0.3950    -2.7920    -0.6830 n          1 Y3U      -0.498400
      3 C4          -0.0770    -2.6750    -1.9930 c          1 Y3U       0.729700
      4 O4          -0.7930    -3.5250    -2.4830 o          1 Y3U      -0.594500
      5 C5           0.3480    -1.4780    -2.6800 cc         1 Y3U      -0.325200
      6 C6           1.1800    -0.6200    -2.0790 cd         1 Y3U       0.039600
      7 N1           1.6870    -0.8420    -0.8310 n          1 Y3U      -0.391000
      8 C1           2.5020     0.1750    -0.1930 c5         1 Y3U       0.299500
      9 O1           1.7070     1.3340    -0.0560 os         1 Y3U      -0.425600
     10 C7           2.4440     2.4860    -0.4170 c5         1 Y3U       0.126100
     11 C8           1.5160     3.5420    -0.9550 c3         1 Y3U       0.186400
     12 O5           0.7000     4.0780     0.1100 os         1 Y3U      -0.532500
     13 SBI         -0.8800     4.0230    -0.0020 s6         1 Y3U       1.580100
     14 OAD         -1.3480     4.7500     1.1430 o          1 Y3U      -0.607300
     15 OAE         -1.3020     4.3760    -1.3350 o          1 Y3U      -0.607300
     16 NAT         -1.2310     2.4070     0.1480 ns         1 Y3U      -0.682300
     17 C           -0.9520     1.6640     1.2820 c          1 Y3U       0.661100
     18 O           -0.4860     2.1680     2.2720 o          1 Y3U      -0.530100
     19 CA          -1.3050     0.1810     1.1610 c3         1 Y3U       0.103500
     20 N           -0.7570    -0.6190     2.2180 n8         1 Y3U      -0.883800
     21 CB          -2.8350     0.0110     1.1030 c3         1 Y3U      -0.014100
     22 CG          -3.2320    -1.4070     0.8100 ca         1 Y3U      -0.114300
     23 CD1         -3.3510    -1.8570    -0.4990 ca         1 Y3U      -0.078500
     24 CE1         -3.7030    -3.1680    -0.7880 ca         1 Y3U      -0.190500
     25 CZ          -3.9430    -4.0640     0.2490 ca         1 Y3U       0.137100
     26 OH          -4.2910    -5.3520     0.0360 oh         1 Y3U      -0.496100
     27 CE2         -3.8260    -3.6310     1.5680 ca         1 Y3U      -0.190500
     28 CD2         -3.4720    -2.3190     1.8340 ca         1 Y3U      -0.078500
     29 C3           3.4170     1.9890    -1.4850 c5         1 Y3U       0.068100
     30 O3           4.5170     2.8420    -1.5870 oh         1 Y3U      -0.576800
     31 C2           3.7670     0.5830    -0.9670 c5         1 Y3U       0.084100
     32 O2           4.8180     0.6410    -0.0440 oh         1 Y3U      -0.573800
     33 C9           1.3380    -1.9720    -0.1080 c          1 Y3U       0.829500
     34 O6           1.8220    -2.2150     0.9780 o          1 Y3U      -0.611500
     35 H1          -0.3530    -3.5040     1.1300 h1         1 Y3U       0.064367
     36 H2          -0.9790    -4.3010    -0.3110 h1         1 Y3U       0.064367
     37 H3           0.6620    -4.6700     0.2490 h1         1 Y3U       0.064367
     38 H4          -0.0140    -1.2900    -3.6790 ha         1 Y3U       0.173000
     39 H5           1.5000     0.2840    -2.5770 h4         1 Y3U       0.146000
     40 H6           2.7880    -0.2180     0.7810 h2         1 Y3U       0.137700
     41 H7           3.0060     2.8780     0.4410 h1         1 Y3U       0.108700
     42 H8           2.0960     4.3740    -1.3550 h1         1 Y3U       0.067200
     43 H9           0.9050     3.1360    -1.7630 h1         1 Y3U       0.067200
     44 H10         -1.5890     1.9620    -0.6870 hn         1 Y3U       0.343500
     45 H11         -0.9000    -0.1720     0.2060 h1         1 Y3U       0.070700
     46 H12          0.2520    -0.5610     2.2440 hn         1 Y3U       0.364300
     47 H13         -1.0890    -0.2910     3.1170 hn         1 Y3U       0.364300
     48 H15         -3.2580     0.3350     2.0590 hc         1 Y3U       0.052700
     49 H16         -3.2530     0.6720     0.3420 hc         1 Y3U       0.052700
     50 H17         -3.1770    -1.1720    -1.3220 ha         1 Y3U       0.128000
     51 H18         -3.7890    -3.4880    -1.8190 ha         1 Y3U       0.143500
     52 H19         -4.3420    -5.5320    -0.9090 ho         1 Y3U       0.427000
     53 H20         -4.0130    -4.3230     2.3800 ha         1 Y3U       0.143500
     54 H21         -3.3890    -1.9990     2.8660 ha         1 Y3U       0.128000
     55 H22          2.8910     1.9040    -2.4450 h1         1 Y3U       0.043700
     56 H23          4.8820     2.7800    -2.4760 ho         1 Y3U       0.423000
     57 H24          3.9860    -0.1160    -1.7840 h1         1 Y3U       0.067700
     58 H25          5.4640     1.2790    -0.3730 ho         1 Y3U       0.430000
@<TRIPOS>BOND
     1     1     2 1   
     2     1    35 1   
     3     1    36 1   
     4     1    37 1   
     5     2     3 1   
     6     2    33 1   
     7     3     4 2   
     8     3     5 1   
     9     5     6 2   
    10     5    38 1   
    11     6     7 1   
    12     6    39 1   
    13     7     8 1   
    14     7    33 1   
    15     8     9 1   
    16     8    31 1   
    17     8    40 1   
    18     9    10 1   
    19    10    11 1   
    20    10    29 1   
    21    10    41 1   
    22    11    12 1   
    23    11    42 1   
    24    11    43 1   
    25    12    13 1   
    26    13    14 2   
    27    13    15 2   
    28    13    16 1   
    29    16    17 1   
    30    16    44 1   
    31    17    18 2   
    32    17    19 1   
    33    19    20 1   
    34    19    21 1   
    35    19    45 1   
    36    20    46 1   
    37    20    47 1   
    38    21    22 1   
    39    21    48 1   
    40    21    49 1   
    41    22    23 ar  
    42    22    28 ar  
    43    23    24 ar  
    44    23    50 1   
    45    24    25 ar  
    46    24    51 1   
    47    25    26 1   
    48    25    27 ar  
    49    26    52 1   
    50    27    28 ar  
    51    27    53 1   
    52    28    54 1   
    53    29    30 1   
    54    29    31 1   
    55    29    55 1   
    56    30    56 1   
    57    31    32 1   
    58    31    57 1   
    59    32    58 1   
    60    33    34 2   
@<TRIPOS>SUBSTRUCTURE
     1 Y3U         1 TEMP              0 ****  ****    0 ROOT
