@<TRIPOS>MOLECULE
Y3U
   58    60     1     0     0
SMALL
No Charge or Current Charge


@<TRIPOS>ATOM
      1 C3U          0.4760    -4.7450    -0.3890 c3         1 Y3U       0.081300
      2 N3           0.4560    -3.3780    -0.9780 n          1 Y3U      -0.364400
      3 C4          -0.2470    -3.1670    -2.1710 c          1 Y3U       0.587200
      4 O4          -0.8300    -4.0530    -2.7770 o          1 Y3U      -0.519000
      5 C5          -0.2350    -1.7850    -2.6480 cc         1 Y3U      -0.375200
      6 C6           0.4340    -0.7800    -2.0000 cd         1 Y3U      -0.010400
      7 N1           1.1500    -1.0720    -0.8450 n          1 Y3U      -0.324000
      8 C1           1.9750    -0.0270    -0.1770 c5         1 Y3U       0.322700
      9 O1           1.3360     1.2700    -0.2630 os         1 Y3U      -0.472000
     10 C7           2.3570     2.2300    -0.6120 c5         1 Y3U       0.149300
     11 C8           1.7220     3.5660    -1.0770 c3         1 Y3U       0.209600
     12 O5           1.2840     4.2960     0.0920 os         1 Y3U      -0.555700
     13 SBI         -0.3300     4.4590     0.3600 s6         1 Y3U       1.438500
     14 OAD         -0.5370     5.3750     1.4870 o          1 Y3U      -0.536500
     15 OAE         -1.0140     4.6700    -0.9190 o          1 Y3U      -0.536500
     16 NAT         -0.6530     2.9130     0.8580 ns         1 Y3U      -0.615300
     17 C           -1.7590     2.4600     1.4980 c          1 Y3U       0.594100
     18 O           -2.6610     3.2030     1.8590 o          1 Y3U      -0.530100
     19 CA          -1.7900     0.9060     1.7300 c3         1 Y3U       0.103500
     20 N           -1.4530     0.4720     3.1330 n8         1 Y3U      -0.994200
     21 CB          -3.1460     0.3090     1.2590 c3         1 Y3U      -0.014100
     22 CG          -3.0760    -1.1580     0.8310 ca         1 Y3U      -0.114300
     23 CD1         -3.2620    -1.5030    -0.5230 ca         1 Y3U      -0.060500
     24 CE1         -3.2380    -2.8500    -0.9230 ca         1 Y3U      -0.172500
     25 CZ          -3.0140    -3.8600     0.0240 ca         1 Y3U       0.137100
     26 OH          -2.9790    -5.1660    -0.3610 oh         1 Y3U      -0.535100
     27 CE2         -2.8260    -3.5270     1.3720 ca         1 Y3U      -0.172500
     28 CD2         -2.8620    -2.1810     1.7770 ca         1 Y3U      -0.060500
     29 C3           3.1550     1.4550    -1.7010 c5         1 Y3U       0.091300
     30 O3           4.4300     2.0450    -2.0150 oh         1 Y3U      -0.699000
     31 C2           3.3320     0.0840    -0.9790 c5         1 Y3U       0.107300
     32 O2           4.4820     0.1740    -0.1260 oh         1 Y3U      -0.696000
     33 C9           1.1520    -2.3700    -0.2930 c          1 Y3U       0.620000
     34 O6           1.7590    -2.6170     0.7410 o          1 Y3U      -0.536000
     35 H1          -0.0430    -4.7340     0.5780 h1         1 Y3U       0.064367
     36 H2          -0.0120    -5.4830    -1.0360 h1         1 Y3U       0.064367
     37 H3           1.5140    -5.0650    -0.2300 h1         1 Y3U       0.064367
     38 H4          -0.7930    -1.6050    -3.5600 ha         1 Y3U       0.223000
     39 H5           0.4640     0.2570    -2.3260 h4         1 Y3U       0.196000
     40 H6           2.1490    -0.3100     0.8700 h2         1 Y3U       0.137700
     41 H7           2.9870     2.4310     0.2660 h1         1 Y3U       0.108700
     42 H8           2.4940     4.1440    -1.6010 h1         1 Y3U       0.067200
     43 H9           0.9170     3.3630    -1.7980 h1         1 Y3U       0.067200
     44 H10          0.0580     2.2690     0.5530 hn         1 Y3U       0.343500
     45 H11         -1.0190     0.4880     1.0660 h1         1 Y3U       0.070700
     46 H12         -0.5340     0.8470     3.4020 hn         1 Y3U       0.419500
     47 H13         -2.0950     0.9290     3.7940 hn         1 Y3U       0.419500
     48 H15         -3.8950     0.4350     2.0510 hc         1 Y3U       0.052700
     49 H16         -3.5140     0.9080     0.4160 hc         1 Y3U       0.052700
     50 H17         -3.4330    -0.7300    -1.2690 ha         1 Y3U       0.110000
     51 H18         -3.3920    -3.0990    -1.9700 ha         1 Y3U       0.125500
     52 H19         -3.0320    -5.1990    -1.3400 ho         1 Y3U       0.466000
     53 H20         -2.6570    -4.3100     2.1070 ha         1 Y3U       0.125500
     54 H21         -2.7280    -1.9350     2.8280 ha         1 Y3U       0.110000
     55 H22          2.5480     1.3420    -2.6110 h1         1 Y3U       0.043700
     56 H23          4.5320     2.0370    -2.9990 ho         1 Y3U       0.522000
     57 H24          3.4520    -0.7360    -1.7020 h1         1 Y3U       0.067700
     58 H25          5.0120     0.9000    -0.5470 ho         1 Y3U       0.529000
@<TRIPOS>BOND
     1     1     2 1   
     2     1    35 1   
     3     1    36 1   
     4     1    37 1   
     5     2     3 1   
     6     2    33 1   
     7     3     4 2   
     8     3     5 1   
     9     5     6 2   
    10     5    38 1   
    11     6     7 1   
    12     6    39 1   
    13     7     8 1   
    14     7    33 1   
    15     8     9 1   
    16     8    31 1   
    17     8    40 1   
    18     9    10 1   
    19    10    11 1   
    20    10    29 1   
    21    10    41 1   
    22    11    12 1   
    23    11    42 1   
    24    11    43 1   
    25    12    13 1   
    26    13    14 2   
    27    13    15 2   
    28    13    16 1   
    29    16    17 1   
    30    16    44 1   
    31    17    18 2   
    32    17    19 1   
    33    19    20 1   
    34    19    21 1   
    35    19    45 1   
    36    20    46 1   
    37    20    47 1   
    38    21    22 1   
    39    21    48 1   
    40    21    49 1   
    41    22    23 ar  
    42    22    28 ar  
    43    23    24 ar  
    44    23    50 1   
    45    24    25 ar  
    46    24    51 1   
    47    25    26 1   
    48    25    27 ar  
    49    26    52 1   
    50    27    28 ar  
    51    27    53 1   
    52    28    54 1   
    53    29    30 1   
    54    29    31 1   
    55    29    55 1   
    56    30    56 1   
    57    31    32 1   
    58    31    57 1   
    59    32    58 1   
    60    33    34 2   
@<TRIPOS>SUBSTRUCTURE
     1 Y3U         1 TEMP              0 ****  ****    0 ROOT
