@<TRIPOS>MOLECULE
Y3V
   46    48     1     0     0
SMALL
abcg2


@<TRIPOS>ATOM
      1 N1         -18.5310    13.7150    25.2100 n          1 Y3V      -0.407800
      2 N3         -19.9420    15.4920    26.8840 n          1 Y3V      -0.416800
      3 C4         -17.5270    12.9330    24.7460 c          1 Y3V       0.651700
      4 C5         -16.4160    13.6110    24.0520 cc         1 Y3V      -0.249600
      5 C6         -15.7360    14.7590    24.4100 cd         1 Y3V      -0.141000
      6 C7         -14.6290    14.8800    23.5500 cd         1 Y3V      -0.190000
      7 C8         -14.6750    13.8050    22.6920 cc         1 Y3V      -0.180000
      8 C10        -18.8980    15.0270    24.7230 c6         1 Y3V       0.096000
      9 C13        -21.3210    18.5880    28.3380 c3         1 Y3V       0.138000
     10 C15        -20.1550    18.5000    30.6690 cx         1 Y3V      -0.123400
     11 C1         -18.4280    14.0710    28.2340 c3         1 Y3V      -0.114100
     12 C11        -19.0510    16.0160    25.8650 c6         1 Y3V       0.083000
     13 C12        -20.6560    16.2970    27.7420 c          1 Y3V       0.654100
     14 C14        -20.4200    19.2060    29.3770 cx         1 Y3V      -0.165700
     15 C16        -21.0170    19.7270    30.6480 cx         1 Y3V      -0.123400
     16 C2         -19.6580    14.1290    27.3320 c6         1 Y3V       0.098700
     17 C3         -19.5240    13.2010    26.1280 c6         1 Y3V       0.086000
     18 N2         -15.7460    13.0360    23.0060 na         1 Y3V       0.063000
     19 N4         -20.6500    17.6310    27.4850 ns         1 Y3V      -0.515900
     20 O1         -17.4950    11.7230    24.9390 o          1 Y3V      -0.604100
     21 O2         -21.3040    15.8190    28.6690 o          1 Y3V      -0.641100
     22 H7         -15.9980    15.4190    25.2220 ha         1 Y3V       0.131000
     23 H8         -13.8850    15.6600    23.5500 ha         1 Y3V       0.135000
     24 H9         -14.0290    13.5390    21.8710 h4         1 Y3V       0.146000
     25 H14        -18.1680    15.4010    24.0110 h1         1 Y3V       0.060200
     26 H13        -19.8570    14.9440    24.1980 h1         1 Y3V       0.060200
     27 H19        -21.7300    19.3740    27.6980 h1         1 Y3V       0.060200
     28 H18        -22.1690    18.1000    28.8160 h1         1 Y3V       0.060200
     29 H21        -19.1650    18.5780    31.1000 hc         1 Y3V       0.075200
     30 H2         -18.5580    14.7140    29.1050 hc         1 Y3V       0.044033
     31 H3         -18.2670    13.0540    28.5930 hc         1 Y3V       0.044033
     32 H1         -17.5230    14.3870    27.7140 hc         1 Y3V       0.044033
     33 H16        -18.0670    16.2700    26.2760 h1         1 Y3V       0.042200
     34 H15        -19.4660    16.9200    25.4220 h1         1 Y3V       0.042200
     35 H20        -19.5960    19.7840    28.9690 hc         1 Y3V       0.070700
     36 H24        -22.0830    19.5990    30.7960 hc         1 Y3V       0.075200
     37 H23        -20.6210    20.6440    31.0650 hc         1 Y3V       0.075200
     38 H4         -20.5230    13.7810    27.8940 h1         1 Y3V       0.092700
     39 H6         -19.2420    12.2070    26.4680 h1         1 Y3V       0.067200
     40 H5         -20.4880    13.1190    25.6160 h1         1 Y3V       0.067200
     41 H17        -19.9830    18.0210    26.8440 hn         1 Y3V       0.304500
     42 C9         -16.1040    11.8240    22.2970 c3         1 Y3V       0.055900
     43 H22        -20.6360    17.5440    30.8320 hc         1 Y3V       0.075200
     44 H10        -17.1680    11.8060    22.0770 h1         1 Y3V       0.058367
     45 H12        -15.5610    11.8040    21.3560 h1         1 Y3V       0.058367
     46 H11        -15.8470    10.9370    22.8710 h1         1 Y3V       0.058367
@<TRIPOS>BOND
     1     1     3 1   
     2     1     8 1   
     3     1    17 1   
     4     2    12 1   
     5     2    13 1   
     6     2    16 1   
     7     3     4 1   
     8     3    20 2   
     9     4     5 2   
    10     4    18 1   
    11     5     6 1   
    12     5    22 1   
    13     6     7 2   
    14     6    23 1   
    15     7    18 1   
    16     7    24 1   
    17     8    12 1   
    18     8    25 1   
    19     8    26 1   
    20     9    14 1   
    21     9    19 1   
    22     9    27 1   
    23     9    28 1   
    24    10    14 1   
    25    10    15 1   
    26    10    29 1   
    27    10    43 1   
    28    11    16 1   
    29    11    30 1   
    30    11    31 1   
    31    11    32 1   
    32    12    33 1   
    33    12    34 1   
    34    13    19 1   
    35    13    21 2   
    36    14    15 1   
    37    14    35 1   
    38    15    36 1   
    39    15    37 1   
    40    16    17 1   
    41    16    38 1   
    42    17    39 1   
    43    17    40 1   
    44    18    42 1   
    45    19    41 1   
    46    42    44 1   
    47    42    45 1   
    48    42    46 1   
@<TRIPOS>SUBSTRUCTURE
     1 Y3V         1 TEMP              0 ****  ****    0 ROOT
