@<TRIPOS>MOLECULE
Y3V
   46    48     1     0     0
SMALL
No Charge or Current Charge


@<TRIPOS>ATOM
      1 N1         -18.3170    13.7570    25.3070 n          1 Y3V      -0.407800
      2 N3         -19.9140    15.4790    27.1240 n          1 Y3V      -0.416800
      3 C4         -17.6550    12.9130    24.3880 c          1 Y3V       0.651700
      4 C5         -16.3930    13.4310    23.7810 cc         1 Y3V      -0.249600
      5 C6         -15.6590    14.5030    24.2390 cd         1 Y3V      -0.141000
      6 C7         -14.5100    14.6510    23.4450 cd         1 Y3V      -0.190000
      7 C8         -14.4980    13.6670    22.4990 cc         1 Y3V      -0.180000
      8 C10        -18.6690    15.1490    24.9120 c6         1 Y3V       0.096000
      9 C13        -21.5650    18.5800    28.4500 c3         1 Y3V       0.138000
     10 C15        -20.2130    18.8440    30.7030 cx         1 Y3V      -0.123400
     11 C1         -18.4320    13.9540    28.4500 c3         1 Y3V      -0.114100
     12 C11        -19.0000    16.0820    26.1050 c6         1 Y3V       0.083000
     13 C12        -20.7540    16.2500    27.9560 c          1 Y3V       0.654100
     14 C14        -20.6410    19.3830    29.3560 cx         1 Y3V      -0.165700
     15 C16        -21.1600    20.0200    30.6250 cx         1 Y3V      -0.123400
     16 C2         -19.6260    14.0540    27.4610 c6         1 Y3V       0.098700
     17 C3         -19.3500    13.1820    26.2070 c6         1 Y3V       0.086000
     18 N2         -15.6440    12.8990    22.7190 na         1 Y3V       0.063000
     19 N4         -20.7960    17.5970    27.6890 ns         1 Y3V      -0.515900
     20 O1         -18.0930    11.7980    24.1340 o          1 Y3V      -0.604100
     21 O2         -21.4070    15.7510    28.8590 o          1 Y3V      -0.641100
     22 H7         -15.9000    15.1260    25.0960 ha         1 Y3V       0.131000
     23 H8         -13.7460    15.4120    23.5720 ha         1 Y3V       0.135000
     24 H9         -13.7830    13.4430    21.7160 h4         1 Y3V       0.146000
     25 H14        -17.8930    15.6130    24.2930 h1         1 Y3V       0.060200
     26 H13        -19.5630    15.0930    24.2740 h1         1 Y3V       0.060200
     27 H19        -22.0660    19.2580    27.7460 h1         1 Y3V       0.060200
     28 H18        -22.3410    18.0790    29.0450 h1         1 Y3V       0.060200
     29 H21        -19.1920    19.0340    31.0230 hc         1 Y3V       0.075200
     30 H2         -18.6290    14.5290    29.3630 hc         1 Y3V       0.044033
     31 H3         -18.2520    12.9150    28.7490 hc         1 Y3V       0.044033
     32 H1         -17.5060    14.3390    28.0080 hc         1 Y3V       0.044033
     33 H16        -18.0630    16.3600    26.6060 h1         1 Y3V       0.042200
     34 H15        -19.4330    17.0010    25.6890 h1         1 Y3V       0.042200
     35 H20        -19.8970    19.9470    28.7970 hc         1 Y3V       0.070700
     36 H24        -22.1990    19.8500    30.8970 hc         1 Y3V       0.075200
     37 H23        -20.7740    21.0000    30.8950 hc         1 Y3V       0.075200
     38 H4         -20.5020    13.6200    27.9650 h1         1 Y3V       0.092700
     39 H6         -19.0470    12.1750    26.5280 h1         1 Y3V       0.067200
     40 H5         -20.2860    13.0690    25.6410 h1         1 Y3V       0.067200
     41 H17        -20.2210    17.9260    26.9280 hn         1 Y3V       0.304500
     42 C9         -16.0080    11.7170    21.9240 c3         1 Y3V       0.055900
     43 H22        -20.6190    17.8870    31.0220 hc         1 Y3V       0.075200
     44 H10        -17.0200    11.8420    21.5220 h1         1 Y3V       0.058367
     45 H12        -15.3030    11.5940    21.0930 h1         1 Y3V       0.058367
     46 H11        -15.9750    10.8240    22.5600 h1         1 Y3V       0.058367
@<TRIPOS>BOND
     1     1     3 1   
     2     1     8 1   
     3     1    17 1   
     4     2    12 1   
     5     2    13 1   
     6     2    16 1   
     7     3     4 1   
     8     3    20 2   
     9     4     5 2   
    10     4    18 1   
    11     5     6 1   
    12     5    22 1   
    13     6     7 2   
    14     6    23 1   
    15     7    18 1   
    16     7    24 1   
    17     8    12 1   
    18     8    25 1   
    19     8    26 1   
    20     9    14 1   
    21     9    19 1   
    22     9    27 1   
    23     9    28 1   
    24    10    14 1   
    25    10    15 1   
    26    10    29 1   
    27    10    43 1   
    28    11    16 1   
    29    11    30 1   
    30    11    31 1   
    31    11    32 1   
    32    12    33 1   
    33    12    34 1   
    34    13    19 1   
    35    13    21 2   
    36    14    15 1   
    37    14    35 1   
    38    15    36 1   
    39    15    37 1   
    40    16    17 1   
    41    16    38 1   
    42    17    39 1   
    43    17    40 1   
    44    18    42 1   
    45    19    41 1   
    46    42    44 1   
    47    42    45 1   
    48    42    46 1   
@<TRIPOS>SUBSTRUCTURE
     1 Y3V         1 TEMP              0 ****  ****    0 ROOT
