@<TRIPOS>MOLECULE
Y3Y
   42    43     1     0     0
SMALL
abcg2


@<TRIPOS>ATOM
      1 N1         -21.5580    16.2670    27.1490 ns         1 Y3Y      -0.518900
      2 N3         -18.4960    12.8720    25.1040 n          1 Y3Y      -0.408800
      3 C4         -21.2750    14.9660    27.4510 c          1 Y3Y       0.643100
      4 C5         -19.6280    14.9970    25.5830 c6         1 Y3Y       0.080000
      5 C6         -19.1890    14.0070    24.5110 c6         1 Y3Y       0.099000
      6 C7         -17.2690    12.3980    24.7820 c          1 Y3Y       0.646700
      7 C8         -16.3700    13.2520    23.9690 cc         1 Y3Y      -0.284600
      8 C10        -15.0670    15.0020    23.1580 cd         1 Y3Y      -0.142000
      9 C13        -19.7540    13.0930    27.1910 c6         1 Y3Y       0.095700
     10 C1         -22.0570    18.9650    31.1100 c3         1 Y3Y       0.147900
     11 O1         -22.6480    18.3730    29.9650 os         1 Y3Y      -0.460000
     12 C2         -21.7160    17.6320    29.1950 c3         1 Y3Y       0.126600
     13 C3         -22.4410    17.0580    27.9850 c3         1 Y3Y       0.108000
     14 O2         -21.8370    14.3890    28.3900 o          1 Y3Y      -0.635100
     15 N2         -20.3710    14.3140    26.6410 n          1 Y3Y      -0.417800
     16 O3         -16.8720    11.2880    25.1560 o          1 Y3Y      -0.600100
     17 C9         -16.0950    14.5940    24.0480 cd         1 Y3Y      -0.105000
     18 C11        -14.5780    13.9640    22.4130 cc         1 Y3Y      -0.244000
     19 S1         -15.3450    12.4810    22.8060 ss         1 Y3Y       0.291000
     20 C12        -19.3440    12.1610    26.0520 c6         1 Y3Y       0.088000
     21 C14        -18.5800    13.4230    28.1150 c3         1 Y3Y      -0.113100
     22 H1         -20.9540    16.7770    26.5280 hn         1 Y3Y       0.304500
     23 H2         -18.7550    15.5220    25.9870 h1         1 Y3Y       0.042700
     24 H3         -20.2720    15.7260    25.0960 h1         1 Y3Y       0.042700
     25 H4         -18.5630    14.5020    23.7790 h1         1 Y3Y       0.062700
     26 H5         -20.0770    13.6220    23.9980 h1         1 Y3Y       0.062700
     27 H6         -14.7070    16.0170    23.0780 ha         1 Y3Y       0.136000
     28 H7         -20.5270    12.5880    27.7630 h1         1 Y3Y       0.096700
     29 H8         -22.8400    19.5040    31.6410 h1         1 Y3Y       0.031367
     30 H9         -21.6290    18.2020    31.7710 h1         1 Y3Y       0.031367
     31 H10        -21.2640    19.6670    30.8250 h1         1 Y3Y       0.031367
     32 H11        -21.2880    16.8200    29.7950 h1         1 Y3Y       0.028200
     33 H12        -20.8930    18.2820    28.8670 h1         1 Y3Y       0.028200
     34 H13        -22.8500    17.8690    27.3810 h1         1 Y3Y       0.072200
     35 H14        -23.2670    16.4300    28.3170 h1         1 Y3Y       0.072200
     36 H15        -16.5880    15.2650    24.7360 ha         1 Y3Y       0.131000
     37 H16        -13.8120    13.9900    21.6550 h4         1 Y3Y       0.153000
     38 H17        -20.2340    11.8010    25.5290 h1         1 Y3Y       0.072200
     39 H18        -18.7980    11.3100    26.4460 h1         1 Y3Y       0.072200
     40 H19        -18.9050    14.0970    28.9090 hc         1 Y3Y       0.044700
     41 H20        -18.1960    12.5100    28.5730 hc         1 Y3Y       0.044700
     42 H21        -17.7650    13.8990    27.5690 hc         1 Y3Y       0.044700
@<TRIPOS>BOND
     1     1     3 1   
     2     1    13 1   
     3     1    22 1   
     4     2     5 1   
     5     2     6 1   
     6     2    20 1   
     7     3    14 2   
     8     3    15 1   
     9     4     5 1   
    10     4    15 1   
    11     4    23 1   
    12     4    24 1   
    13     5    25 1   
    14     5    26 1   
    15     6     7 1   
    16     6    16 2   
    17     7    17 2   
    18     7    19 1   
    19     8    17 1   
    20     8    18 2   
    21     8    27 1   
    22     9    15 1   
    23     9    20 1   
    24     9    21 1   
    25     9    28 1   
    26    10    11 1   
    27    10    29 1   
    28    10    30 1   
    29    10    31 1   
    30    11    12 1   
    31    12    13 1   
    32    12    32 1   
    33    12    33 1   
    34    13    34 1   
    35    13    35 1   
    36    17    36 1   
    37    18    19 1   
    38    18    37 1   
    39    20    38 1   
    40    20    39 1   
    41    21    40 1   
    42    21    41 1   
    43    21    42 1   
@<TRIPOS>SUBSTRUCTURE
     1 Y3Y         1 TEMP              0 ****  ****    0 ROOT
