@<TRIPOS>MOLECULE
Y3Y
   42    43     1     0     0
SMALL
No Charge or Current Charge


@<TRIPOS>ATOM
      1 N1         -21.5610    16.3060    27.3070 ns         1 Y3Y      -0.518900
      2 N3         -18.2840    12.9820    25.1180 n          1 Y3Y      -0.408800
      3 C4         -21.1770    15.0400    27.6770 c          1 Y3Y       0.643100
      4 C5         -19.4880    15.1360    25.7620 c6         1 Y3Y       0.080000
      5 C6         -18.9770    14.2070    24.6320 c6         1 Y3Y       0.099000
      6 C7         -17.4640    12.2440    24.2380 c          1 Y3Y       0.646700
      7 C8         -16.3950    12.9880    23.5290 cc         1 Y3Y      -0.284600
      8 C10        -14.8390    14.6420    22.9810 cd         1 Y3Y      -0.142000
      9 C13        -19.5600    13.1470    27.3050 c6         1 Y3Y       0.095700
     10 C1         -22.6120    19.1260    31.2030 c3         1 Y3Y       0.147900
     11 O1         -22.9910    18.5280    29.9520 os         1 Y3Y      -0.460000
     12 C2         -21.9800    17.6930    29.3590 c3         1 Y3Y       0.126600
     13 C3         -22.5370    17.1310    28.0330 c3         1 Y3Y       0.108000
     14 O2         -21.6640    14.4840    28.6490 o          1 Y3Y      -0.635100
     15 N2         -20.1970    14.4250    26.8710 n          1 Y3Y      -0.417800
     16 O3         -17.6160    11.0380    24.0950 o          1 Y3Y      -0.600100
     17 C9         -15.9140    14.2470    23.8210 cd         1 Y3Y      -0.105000
     18 C11        -14.4800    13.6860    22.0650 cc         1 Y3Y      -0.244000
     19 S1         -15.4610    12.2340    22.2440 ss         1 Y3Y       0.291000
     20 C12        -19.1180    12.2580    26.1120 c6         1 Y3Y       0.088000
     21 C14        -18.3480    13.4260    28.2370 c3         1 Y3Y      -0.113100
     22 H1         -21.1130    16.6960    26.4900 hn         1 Y3Y       0.304500
     23 H2         -18.6310    15.6750    26.1910 h1         1 Y3Y       0.042700
     24 H3         -20.1440    15.8850    25.2980 h1         1 Y3Y       0.042700
     25 H4         -18.3580    14.7870    23.9380 h1         1 Y3Y       0.062700
     26 H5         -19.8500    13.8820    24.0480 h1         1 Y3Y       0.062700
     27 H6         -14.3410    15.6040    23.0650 ha         1 Y3Y       0.136000
     28 H7         -20.2880    12.5620    27.8860 h1         1 Y3Y       0.096700
     29 H8         -23.4290    19.7460    31.5930 h1         1 Y3Y       0.031367
     30 H9         -22.3810    18.3550    31.9500 h1         1 Y3Y       0.031367
     31 H10        -21.7280    19.7650    31.0780 h1         1 Y3Y       0.031367
     32 H11        -21.7180    16.8660    30.0310 h1         1 Y3Y       0.028200
     33 H12        -21.0710    18.2740    29.1540 h1         1 Y3Y       0.028200
     34 H13        -22.8370    17.9670    27.3870 h1         1 Y3Y       0.072200
     35 H14        -23.4300    16.5280    28.2420 h1         1 Y3Y       0.072200
     36 H15        -16.2850    14.8750    24.6260 ha         1 Y3Y       0.131000
     37 H16        -13.7020    13.7130    21.3130 h4         1 Y3Y       0.153000
     38 H17        -20.0150    11.8740    25.6050 h1         1 Y3Y       0.072200
     39 H18        -18.5690    11.3860    26.4960 h1         1 Y3Y       0.072200
     40 H19        -18.6520    14.0160    29.1100 hc         1 Y3Y       0.044700
     41 H20        -17.9110    12.4910    28.6080 hc         1 Y3Y       0.044700
     42 H21        -17.5570    13.9810    27.7180 hc         1 Y3Y       0.044700
@<TRIPOS>BOND
     1     1     3 1   
     2     1    13 1   
     3     1    22 1   
     4     2     5 1   
     5     2     6 1   
     6     2    20 1   
     7     3    14 2   
     8     3    15 1   
     9     4     5 1   
    10     4    15 1   
    11     4    23 1   
    12     4    24 1   
    13     5    25 1   
    14     5    26 1   
    15     6     7 1   
    16     6    16 2   
    17     7    17 2   
    18     7    19 1   
    19     8    17 1   
    20     8    18 2   
    21     8    27 1   
    22     9    15 1   
    23     9    20 1   
    24     9    21 1   
    25     9    28 1   
    26    10    11 1   
    27    10    29 1   
    28    10    30 1   
    29    10    31 1   
    30    11    12 1   
    31    12    13 1   
    32    12    32 1   
    33    12    33 1   
    34    13    34 1   
    35    13    35 1   
    36    17    36 1   
    37    18    19 1   
    38    18    37 1   
    39    20    38 1   
    40    20    39 1   
    41    21    40 1   
    42    21    41 1   
    43    21    42 1   
@<TRIPOS>SUBSTRUCTURE
     1 Y3Y         1 TEMP              0 ****  ****    0 ROOT
