@<TRIPOS>MOLECULE
Y3Z
   60    64     1     0     0
SMALL
No Charge or Current Charge


@<TRIPOS>ATOM
      1 C1          17.3900   -40.6620    29.3480 ca         1 Y3Z      -0.148000
      2 C11         18.8680   -37.1980    27.5250 ca         1 Y3Z      -0.022300
      3 C2          17.2620   -39.3320    29.8240 ca         1 Y3Z       0.099000
      4 C7          19.3900   -36.6710    31.4300 ca         1 Y3Z      -0.151000
      5 C6          20.4150   -37.4380    31.9980 ca         1 Y3Z       0.079100
      6 C5          20.3880   -38.8350    31.8680 ca         1 Y3Z       0.111100
      7 C4          19.3400   -39.4570    31.1740 ca         1 Y3Z      -0.078000
      8 C3          18.2960   -38.7000    30.5820 ca         1 Y3Z      -0.087000
      9 C8          18.3350   -37.2820    30.7270 ca         1 Y3Z       0.301000
     10 C10         17.9170   -36.0090    27.6600 c3         1 Y3Z      -0.065100
     11 C12         20.1820   -37.1360    28.0310 ca         1 Y3Z      -0.127000
     12 C14         20.6040   -39.4150    27.2730 ca         1 Y3Z      -0.274500
     13 C15         21.1150   -41.9710    28.3790 ca         1 Y3Z      -0.282500
     14 C21         19.2950   -39.4790    26.7590 ca         1 Y3Z      -0.012500
     15 C22         18.4350   -38.3750    26.8850 ca         1 Y3Z      -0.127000
     16 S1          15.8020   -37.0080    30.1610 sy         1 Y3Z       1.224600
     17 O7          15.4360   -37.1450    31.5750 o          1 Y3Z      -0.535500
     18 C23         16.0810   -38.6300    29.4860 ca         1 Y3Z      -0.340500
     19 C24         15.0790   -39.2130    28.6840 ca         1 Y3Z       0.025000
     20 C25         15.2380   -40.5250    28.2060 ca         1 Y3Z      -0.006900
     21 O9          14.2760   -41.1150    27.4180 oh         1 Y3Z      -0.555100
     22 C           16.3960   -41.2410    28.5480 ca         1 Y3Z       0.158100
     23 O           16.5490   -42.5100    28.0750 oh         1 Y3Z      -0.525100
     24 N           17.3880   -36.4440    30.1220 nh         1 Y3Z      -0.785300
     25 O2          21.4390   -36.8350    32.6810 oh         1 Y3Z      -0.547100
     26 O1          21.3870   -39.5790    32.4310 oh         1 Y3Z      -0.534100
     27 C13         21.0440   -38.2400    27.9160 ca         1 Y3Z      -0.012500
     28 S           21.7020   -40.8370    27.1000 sy         1 Y3Z       1.053000
     29 O5          23.0580   -40.4060    27.4690 o          1 Y3Z      -0.531500
     30 O6          21.4320   -41.4570    25.7950 o          1 Y3Z      -0.531500
     31 C20         21.4700   -41.7520    29.7280 ca         1 Y3Z      -0.065000
     32 C19         21.0160   -42.6320    30.7280 ca         1 Y3Z       0.021100
     33 O4          21.3260   -42.4040    32.0450 oh         1 Y3Z      -0.561100
     34 C18         20.2140   -43.7360    30.3750 ca         1 Y3Z       0.181100
     35 O3          19.7790   -44.5830    31.3490 oh         1 Y3Z      -0.521100
     36 C17         19.8520   -43.9510    29.0380 ca         1 Y3Z      -0.158000
     37 C16         20.2960   -43.0680    28.0380 ca         1 Y3Z       0.004000
     38 H1          18.2780   -41.2540    29.5290 ha         1 Y3Z       0.138000
     39 H5          19.4050   -35.5900    31.5300 ha         1 Y3Z       0.129000
     40 H2          19.3380   -40.5380    31.1440 ha         1 Y3Z       0.142000
     41 H6          17.0420   -34.6300    29.0820 h1         1 Y3Z       0.072200
     42 H7          18.7260   -34.9830    29.3810 h1         1 Y3Z       0.072200
     43 H8          16.9220   -36.2780    27.2900 hc         1 Y3Z       0.067200
     44 H9          18.2630   -35.1960    27.0110 hc         1 Y3Z       0.067200
     45 H10         20.5380   -36.2350    28.5220 ha         1 Y3Z       0.119500
     46 H17         18.9370   -40.3810    26.2670 ha         1 Y3Z       0.134000
     47 H18         17.4250   -38.4420    26.4900 ha         1 Y3Z       0.119500
     48 H19         14.1750   -38.6550    28.4430 ha         1 Y3Z       0.150000
     49 H20         13.5350   -40.4860    27.2730 ho         1 Y3Z       0.459000
     50 H           15.7390   -42.6910    27.5490 ho         1 Y3Z       0.477000
     51 H4          21.2950   -35.8630    32.6840 ho         1 Y3Z       0.475000
     52 H3          21.9810   -38.9320    32.8780 ho         1 Y3Z       0.486000
     53 H11         22.0510   -38.1710    28.3230 ha         1 Y3Z       0.134000
     54 H16         22.0930   -40.9010    29.9960 ha         1 Y3Z       0.129000
     55 H15         21.5250   -41.4410    32.1630 ho         1 Y3Z       0.479000
     56 H14         20.1580   -44.2340    32.1870 ho         1 Y3Z       0.490000
     57 H13         19.2230   -44.7970    28.7760 ha         1 Y3Z       0.144000
     58 H12         20.0020   -43.2460    27.0040 ha         1 Y3Z       0.149000
     59 C9          17.7740   -35.4500    29.0980 c3         1 Y3Z       0.230800
     60 O8          14.9850   -36.2220    29.2300 o          1 Y3Z      -0.535500
@<TRIPOS>BOND
     1     1     3 ar  
     2     1    22 ar  
     3     1    38 1   
     4     2    10 1   
     5     2    11 ar  
     6     2    15 ar  
     7     3     8 1   
     8     3    18 ar  
     9     4     5 ar  
    10     4     9 ar  
    11     4    39 1   
    12     5     6 ar  
    13     5    25 1   
    14     6     7 ar  
    15     6    26 1   
    16     7     8 ar  
    17     7    40 1   
    18     8     9 ar  
    19     9    24 1   
    20    10    43 1   
    21    10    44 1   
    22    10    59 1   
    23    11    27 ar  
    24    11    45 1   
    25    12    14 ar  
    26    12    27 ar  
    27    12    28 1   
    28    13    28 1   
    29    13    31 ar  
    30    13    37 ar  
    31    14    15 ar  
    32    14    46 1   
    33    15    47 1   
    34    16    17 2   
    35    16    18 1   
    36    16    24 1   
    37    16    60 2   
    38    18    19 ar  
    39    19    20 ar  
    40    19    48 1   
    41    20    21 1   
    42    20    22 ar  
    43    21    49 1   
    44    22    23 1   
    45    23    50 1   
    46    24    59 1   
    47    25    51 1   
    48    26    52 1   
    49    27    53 1   
    50    28    29 2   
    51    28    30 2   
    52    31    32 ar  
    53    31    54 1   
    54    32    33 1   
    55    32    34 ar  
    56    33    55 1   
    57    34    35 1   
    58    34    36 ar  
    59    35    56 1   
    60    36    37 ar  
    61    36    57 1   
    62    37    58 1   
    63    41    59 1   
    64    42    59 1   
@<TRIPOS>SUBSTRUCTURE
     1 Y3Z         1 TEMP              0 ****  ****    0 ROOT
