@<TRIPOS>MOLECULE
Y3Z
   60    64     1     0     0
SMALL
abcg2


@<TRIPOS>ATOM
      1 C1          15.0540   -40.0380    28.4940 ca         1 Y3Z      -0.148000
      2 C11         19.3610   -37.8530    27.4930 ca         1 Y3Z      -0.022300
      3 C2          15.6420   -38.9690    29.1760 ca         1 Y3Z       0.099000
      4 C7          18.9870   -38.2010    30.7530 ca         1 Y3Z      -0.151000
      5 C6          19.4100   -39.4630    31.1230 ca         1 Y3Z       0.079100
      6 C5          18.5570   -40.5650    30.9480 ca         1 Y3Z       0.111100
      7 C4          17.3190   -40.3840    30.3690 ca         1 Y3Z      -0.078000
      8 C3          16.8920   -39.1220    29.9320 ca         1 Y3Z      -0.087000
      9 C8          17.7410   -38.0250    30.1580 ca         1 Y3Z       0.301000
     10 C10         18.4190   -36.6780    27.4330 c3         1 Y3Z      -0.065100
     11 C12         20.7190   -37.6440    27.7520 ca         1 Y3Z      -0.127000
     12 C14         21.1210   -40.0030    27.6650 ca         1 Y3Z      -0.274500
     13 C15         22.4670   -41.7550    29.4290 ca         1 Y3Z      -0.282500
     14 C21         19.7740   -40.2370    27.4150 ca         1 Y3Z      -0.012500
     15 C22         18.9060   -39.1580    27.3170 ca         1 Y3Z      -0.127000
     16 S1          15.7610   -36.3730    29.8950 sy         1 Y3Z       1.224600
     17 O7          15.4260   -36.4750    31.2980 o          1 Y3Z      -0.535500
     18 C23         15.0280   -37.7130    29.0440 ca         1 Y3Z      -0.340500
     19 C24         13.8790   -37.5200    28.2850 ca         1 Y3Z       0.025000
     20 C25         13.3040   -38.5960    27.6390 ca         1 Y3Z      -0.006900
     21 O9          12.1960   -38.4200    26.8390 oh         1 Y3Z      -0.555100
     22 C           13.9070   -39.8620    27.7340 ca         1 Y3Z       0.158100
     23 O           13.3980   -40.9290    27.0730 oh         1 Y3Z      -0.525100
     24 N           17.3640   -36.7150    29.7370 nh         1 Y3Z      -0.785300
     25 O2          20.6140   -39.7310    31.6930 oh         1 Y3Z      -0.547100
     26 O1          18.9350   -41.8090    31.3490 oh         1 Y3Z      -0.534100
     27 C13         21.6020   -38.7060    27.8370 ca         1 Y3Z      -0.012500
     28 S           22.2550   -41.3630    27.7200 sy         1 Y3Z       1.053000
     29 O5          23.5300   -40.8880    27.2130 o          1 Y3Z      -0.531500
     30 O6          21.6210   -42.4950    27.0700 o          1 Y3Z      -0.531500
     31 C20         23.3470   -40.9870    30.1940 ca         1 Y3Z      -0.065000
     32 C19         23.5110   -41.2830    31.5330 ca         1 Y3Z       0.021100
     33 O4          24.3320   -40.6010    32.3790 oh         1 Y3Z      -0.561100
     34 C18         22.8030   -42.3520    32.1110 ca         1 Y3Z       0.181100
     35 O3          22.9550   -42.6480    33.4220 oh         1 Y3Z      -0.521100
     36 C17         21.9370   -43.1100    31.3330 ca         1 Y3Z      -0.158000
     37 C16         21.7590   -42.8100    29.9870 ca         1 Y3Z       0.004000
     38 H1          15.5060   -41.0190    28.5070 ha         1 Y3Z       0.138000
     39 H5          19.6380   -37.3520    30.9130 ha         1 Y3Z       0.129000
     40 H2          16.6860   -41.2510    30.2450 ha         1 Y3Z       0.142000
     41 H6          17.7210   -35.0140    28.6160 h1         1 Y3Z       0.072200
     42 H7          19.1610   -35.7720    29.2620 h1         1 Y3Z       0.072200
     43 H8          17.4540   -36.9840    27.0270 hc         1 Y3Z       0.067200
     44 H9          18.8320   -35.9280    26.7540 hc         1 Y3Z       0.067200
     45 H10         21.0900   -36.6350    27.8850 ha         1 Y3Z       0.119500
     46 H17         19.4130   -41.2470    27.2860 ha         1 Y3Z       0.134000
     47 H18         17.8580   -39.3370    27.1160 ha         1 Y3Z       0.119500
     48 H19         13.4280   -36.5410    28.1970 ha         1 Y3Z       0.150000
     49 H20         11.4340   -38.8960    27.2020 ho         1 Y3Z       0.459000
     50 H           12.6980   -40.6350    26.4700 ho         1 Y3Z       0.477000
     51 H4          21.1970   -38.9620    31.6510 ho         1 Y3Z       0.475000
     52 H3          19.8650   -41.7880    31.6250 ho         1 Y3Z       0.486000
     53 H11         22.6530   -38.5330    28.0200 ha         1 Y3Z       0.134000
     54 H16         23.8980   -40.1670    29.7530 ha         1 Y3Z       0.129000
     55 H15         24.7880   -39.8840    31.9160 ho         1 Y3Z       0.479000
     56 H14         23.5760   -42.0220    33.8230 ho         1 Y3Z       0.490000
     57 H13         21.4070   -43.9340    31.7930 ha         1 Y3Z       0.144000
     58 H12         21.0830   -43.3950    29.3820 ha         1 Y3Z       0.149000
     59 C9          18.2040   -35.9720    28.7790 c3         1 Y3Z       0.230800
     60 O8          15.4800   -35.1320    29.2170 o          1 Y3Z      -0.535500
@<TRIPOS>BOND
     1     1     3 ar  
     2     1    22 ar  
     3     1    38 1   
     4     2    10 1   
     5     2    11 ar  
     6     2    15 ar  
     7     3     8 1   
     8     3    18 ar  
     9     4     5 ar  
    10     4     9 ar  
    11     4    39 1   
    12     5     6 ar  
    13     5    25 1   
    14     6     7 ar  
    15     6    26 1   
    16     7     8 ar  
    17     7    40 1   
    18     8     9 ar  
    19     9    24 1   
    20    10    43 1   
    21    10    44 1   
    22    10    59 1   
    23    11    27 ar  
    24    11    45 1   
    25    12    14 ar  
    26    12    27 ar  
    27    12    28 1   
    28    13    28 1   
    29    13    31 ar  
    30    13    37 ar  
    31    14    15 ar  
    32    14    46 1   
    33    15    47 1   
    34    16    17 2   
    35    16    18 1   
    36    16    24 1   
    37    16    60 2   
    38    18    19 ar  
    39    19    20 ar  
    40    19    48 1   
    41    20    21 1   
    42    20    22 ar  
    43    21    49 1   
    44    22    23 1   
    45    23    50 1   
    46    24    59 1   
    47    25    51 1   
    48    26    52 1   
    49    27    53 1   
    50    28    29 2   
    51    28    30 2   
    52    31    32 ar  
    53    31    54 1   
    54    32    33 1   
    55    32    34 ar  
    56    33    55 1   
    57    34    35 1   
    58    34    36 ar  
    59    35    56 1   
    60    36    37 ar  
    61    36    57 1   
    62    37    58 1   
    63    41    59 1   
    64    42    59 1   
@<TRIPOS>SUBSTRUCTURE
     1 Y3Z         1 TEMP              0 ****  ****    0 ROOT
