@<TRIPOS>MOLECULE
Y41
   43    45     1     0     0
SMALL
No Charge or Current Charge


@<TRIPOS>ATOM
      1 O7          51.0920    31.4070    -1.6420 o          1 Y41      -0.583100
      2 C1          51.1020    31.5810    -0.4300 c          1 Y41       0.608700
      3 C3          50.8720    32.9360     0.2280 ca         1 Y41      -0.109600
      4 C10         50.2270    32.9800     1.4900 ca         1 Y41      -0.138000
      5 C17         49.9590    34.1980     2.1250 ca         1 Y41      -0.079000
      6 C21         50.3240    35.4000     1.5110 ca         1 Y41      -0.165000
      7 C19         50.9680    35.3950     0.2670 ca         1 Y41       0.284000
      8 N01         51.2900    36.6130    -0.2820 nv         1 Y41      -1.071000
      9 C13         51.2650    34.1670    -0.3860 ca         1 Y41      -0.088300
     10 C23         52.0310    34.1670    -1.7200 c3         1 Y41      -0.048800
     11 N2          51.2550    30.5210     0.4380 ns         1 Y41      -0.509900
     12 C6          51.4700    29.1310     0.0300 c3         1 Y41       0.161000
     13 C01         50.9360    28.1790     1.1150 c3         1 Y41      -0.104100
     14 C5          52.9440    28.8320    -0.3010 ca         1 Y41      -0.078300
     15 C8          53.3230    27.8570    -1.2720 ca         1 Y41      -0.019000
     16 C14         52.3690    27.0820    -1.9780 ca         1 Y41      -0.101000
     17 C20         52.7760    26.1340    -2.9320 ca         1 Y41      -0.107000
     18 C22         54.1380    25.9390    -3.1980 ca         1 Y41      -0.108000
     19 C18         55.0970    26.6890    -2.5030 ca         1 Y41      -0.098000
     20 C11         54.6990    27.6390    -1.5430 ca         1 Y41      -0.036000
     21 C12         55.6850    28.3650    -0.8540 ca         1 Y41      -0.097000
     22 C9          55.3150    29.3040     0.1160 ca         1 Y41      -0.107000
     23 C4          53.9600    29.5320     0.3920 ca         1 Y41      -0.100000
     24 H1          49.8960    32.0670     1.9800 ha         1 Y41       0.117000
     25 H2          49.4550    34.2110     3.0900 ha         1 Y41       0.114000
     26 H3          50.1030    36.3410     2.0080 ha         1 Y41       0.112000
     27 H4          50.9320    37.4670     0.1400 hn         1 Y41       0.448000
     28 H5          51.6020    36.6640    -1.2490 hn         1 Y41       0.448000
     29 H6          51.3490    34.0170    -2.5650 hc         1 Y41       0.047700
     30 H7          52.5820    35.0960    -1.9030 hc         1 Y41       0.047700
     31 H8          52.7860    33.3720    -1.7460 hc         1 Y41       0.047700
     32 H9          51.2530    30.7390     1.4250 hn         1 Y41       0.317500
     33 H10         50.8610    28.9830    -0.8700 h1         1 Y41       0.079700
     34 H11         49.8750    28.3740     1.3130 hc         1 Y41       0.044700
     35 H12         51.0370    27.1350     0.7950 hc         1 Y41       0.044700
     36 H13         51.4930    28.3050     2.0520 hc         1 Y41       0.044700
     37 H14         51.3040    27.1860    -1.8000 ha         1 Y41       0.112000
     38 H15         52.0310    25.5470    -3.4650 ha         1 Y41       0.112000
     39 H16         54.4500    25.2040    -3.9370 ha         1 Y41       0.113000
     40 H17         56.1530    26.5270    -2.7090 ha         1 Y41       0.112000
     41 H18         56.7390    28.1950    -1.0620 ha         1 Y41       0.113000
     42 H19         56.0810    29.8570     0.6560 ha         1 Y41       0.111000
     43 H20         53.7060    30.2620     1.1560 ha         1 Y41       0.109000
@<TRIPOS>BOND
     1     1     2 2   
     2     2     3 1   
     3     2    11 1   
     4     3     4 ar  
     5     3     9 ar  
     6     4     5 ar  
     7     4    24 1   
     8     5     6 ar  
     9     5    25 1   
    10     6     7 ar  
    11     6    26 1   
    12     7     8 1   
    13     7     9 ar  
    14     8    27 1   
    15     8    28 1   
    16     9    10 1   
    17    10    29 1   
    18    10    30 1   
    19    10    31 1   
    20    11    12 1   
    21    11    32 1   
    22    12    13 1   
    23    12    14 1   
    24    12    33 1   
    25    13    34 1   
    26    13    35 1   
    27    13    36 1   
    28    14    15 ar  
    29    14    23 ar  
    30    15    16 ar  
    31    15    20 ar  
    32    16    17 ar  
    33    16    37 1   
    34    17    18 ar  
    35    17    38 1   
    36    18    19 ar  
    37    18    39 1   
    38    19    20 ar  
    39    19    40 1   
    40    20    21 ar  
    41    21    22 ar  
    42    21    41 1   
    43    22    23 ar  
    44    22    42 1   
    45    23    43 1   
@<TRIPOS>SUBSTRUCTURE
     1 Y41         1 TEMP              0 ****  ****    0 ROOT
