@<TRIPOS>MOLECULE
Y41
   43    45     1     0     0
SMALL
bcc


@<TRIPOS>ATOM
      1 O7          50.9380    31.2840    -1.6170 o          1 Y41      -0.583100
      2 C1          50.9560    31.4970    -0.4140 c          1 Y41       0.675700
      3 C3          50.6610    32.8430     0.1730 ca         1 Y41      -0.109600
      4 C10         49.6160    32.9300     1.0920 ca         1 Y41      -0.156000
      5 C17         49.2590    34.1670     1.6040 ca         1 Y41      -0.097000
      6 C21         49.9430    35.3030     1.2140 ca         1 Y41      -0.183000
      7 C19         50.9990    35.2250     0.3010 ca         1 Y41       0.145600
      8 N01         51.6320    36.3790    -0.1130 nv         1 Y41      -0.822200
      9 C13         51.3700    33.9750    -0.2350 ca         1 Y41      -0.088300
     10 C23         52.5290    33.9240    -1.1900 c3         1 Y41      -0.048800
     11 N2          51.2120    30.5350     0.4920 ns         1 Y41      -0.576900
     12 C6          51.5220    29.1740     0.1150 c3         1 Y41       0.161000
     13 C01         51.3160    28.2670     1.3260 c3         1 Y41      -0.104100
     14 C5          52.9320    29.0320    -0.4320 ca         1 Y41      -0.078300
     15 C8          53.2610    27.9450    -1.2950 ca         1 Y41      -0.019000
     16 C14         52.3110    26.9840    -1.7240 ca         1 Y41      -0.119000
     17 C20         52.6660    25.9550    -2.5540 ca         1 Y41      -0.125000
     18 C22         53.9940    25.8230    -3.0030 ca         1 Y41      -0.126000
     19 C18         54.9370    26.7330    -2.6120 ca         1 Y41      -0.116000
     20 C11         54.6010    27.8070    -1.7550 ca         1 Y41      -0.036000
     21 C12         55.5790    28.7440    -1.3500 ca         1 Y41      -0.115000
     22 C9          55.2400    29.7760    -0.5220 ca         1 Y41      -0.125000
     23 C4          53.9150    29.9150    -0.0660 ca         1 Y41      -0.118000
     24 H1          49.0720    32.0420     1.3870 ha         1 Y41       0.135000
     25 H2          48.4430    34.2470     2.3110 ha         1 Y41       0.132000
     26 H3          49.6640    36.2690     1.6200 ha         1 Y41       0.130000
     27 H4          51.5230    37.1710     0.5000 hn         1 Y41       0.392800
     28 H5          52.5860    36.2870    -0.4230 hn         1 Y41       0.392800
     29 H6          52.3060    34.4680    -2.1110 hc         1 Y41       0.047700
     30 H7          53.4190    34.3860    -0.7540 hc         1 Y41       0.047700
     31 H8          52.8070    32.9130    -1.4710 hc         1 Y41       0.047700
     32 H9          51.2780    30.7920     1.4650 hn         1 Y41       0.317500
     33 H10         50.8100    28.8900    -0.6630 h1         1 Y41       0.079700
     34 H11         50.2860    28.3210     1.6800 hc         1 Y41       0.044700
     35 H12         51.5330    27.2300     1.0740 hc         1 Y41       0.044700
     36 H13         51.9810    28.5550     2.1420 hc         1 Y41       0.044700
     37 H14         51.2820    27.0540    -1.4010 ha         1 Y41       0.130000
     38 H15         51.9200    25.2360    -2.8670 ha         1 Y41       0.130000
     39 H16         54.2630    25.0030    -3.6570 ha         1 Y41       0.131000
     40 H17         55.9610    26.6420    -2.9540 ha         1 Y41       0.130000
     41 H18         56.5960    28.6320    -1.7060 ha         1 Y41       0.131000
     42 H19         55.9870    30.4950    -0.2100 ha         1 Y41       0.129000
     43 H20         53.6780    30.7460     0.5860 ha         1 Y41       0.127000
@<TRIPOS>BOND
     1     1     2 2   
     2     2     3 1   
     3     2    11 1   
     4     3     4 ar  
     5     3     9 ar  
     6     4     5 ar  
     7     4    24 1   
     8     5     6 ar  
     9     5    25 1   
    10     6     7 ar  
    11     6    26 1   
    12     7     8 1   
    13     7     9 ar  
    14     8    27 1   
    15     8    28 1   
    16     9    10 1   
    17    10    29 1   
    18    10    30 1   
    19    10    31 1   
    20    11    12 1   
    21    11    32 1   
    22    12    13 1   
    23    12    14 1   
    24    12    33 1   
    25    13    34 1   
    26    13    35 1   
    27    13    36 1   
    28    14    15 ar  
    29    14    23 ar  
    30    15    16 ar  
    31    15    20 ar  
    32    16    17 ar  
    33    16    37 1   
    34    17    18 ar  
    35    17    38 1   
    36    18    19 ar  
    37    18    39 1   
    38    19    20 ar  
    39    19    40 1   
    40    20    21 ar  
    41    21    22 ar  
    42    21    41 1   
    43    22    23 ar  
    44    22    42 1   
    45    23    43 1   
@<TRIPOS>SUBSTRUCTURE
     1 Y41         1 TEMP              0 ****  ****    0 ROOT
