@<TRIPOS>MOLECULE
Y44
   41    43     1     0     0
SMALL
No Charge or Current Charge


@<TRIPOS>ATOM
      1 N1         -15.3540    17.0840    25.4220 ns         1 Y44      -0.515900
      2 N3         -16.8350    15.3620    26.0370 n          1 Y44      -0.433800
      3 C4         -15.1300    19.6330    27.3150 ca         1 Y44      -0.050000
      4 C5         -15.5670    20.9240    27.6540 ca         1 Y44      -0.161000
      5 C6         -15.5810    21.9240    26.6670 ca         1 Y44       0.335900
      6 C7         -14.7690    20.4570    25.0670 ca         1 Y44       0.338900
      7 C8         -17.3750    14.3590    26.9950 c6         1 Y44       0.093000
      8 C13        -22.9480    13.0170    28.1690 cc         1 Y44      -0.145000
      9 C15        -18.4970    14.2700    24.4290 c6         1 Y44       0.087500
     10 C1         -15.7130    16.1470    26.3580 c          1 Y44       0.657100
     11 C11        -21.5500    12.7680    26.3080 cd         1 Y44      -0.300600
     12 C12        -21.8350    13.5030    27.4420 cc         1 Y44      -0.095000
     13 C14        -23.5440    11.9230    27.6020 cd         1 Y44      -0.255000
     14 C16        -17.5770    15.4790    24.7480 c6         1 Y44       0.093000
     15 C2         -14.2380    18.0200    25.5600 c3         1 Y44       0.164300
     16 C3         -14.7220    19.3940    25.9900 ca         1 Y44      -0.160300
     17 C9         -18.9140    14.1920    26.9030 c6         1 Y44       0.087500
     18 N2         -15.1890    21.7030    25.3910 nb         1 Y44      -0.667000
     19 N4         -19.4160    13.8770    25.5350 n          1 Y44      -0.401800
     20 O1         -15.1000    16.0090    27.4050 o          1 Y44      -0.634100
     21 O2         -20.5720    12.4340    24.1890 o          1 Y44      -0.610100
     22 S1         -22.7350    11.4640    26.0940 ss         1 Y44       0.315000
     23 H1         -15.9250    17.1400    24.5910 hn         1 Y44       0.308500
     24 H4         -15.1100    18.8400    28.0600 ha         1 Y44       0.123000
     25 H5         -15.8920    21.1530    28.6650 ha         1 Y44       0.125000
     26 H6         -15.9160    22.9330    26.9050 h4         1 Y44       0.019100
     27 H7         -14.4610    20.3100    24.0320 h4         1 Y44       0.008100
     28 H9         -16.8940    13.3900    26.7980 h1         1 Y44       0.057450
     29 H8         -17.1190    14.6450    28.0250 h1         1 Y44       0.057450
     30 H16        -17.8670    13.4040    24.1800 h1         1 Y44       0.062450
     31 H15        -19.0870    14.5070    23.5320 h1         1 Y44       0.062450
     32 H12        -21.3200    14.3970    27.7700 ha         1 Y44       0.134000
     33 H14        -24.4060    11.3670    27.9500 h4         1 Y44       0.152000
     34 H18        -16.8660    15.5900    23.9170 h1         1 Y44       0.057450
     35 H17        -18.1910    16.3900    24.7820 h1         1 Y44       0.057450
     36 H2         -13.5140    17.6380    26.2920 h1         1 Y44       0.063200
     37 H3         -13.7210    18.0920    24.5940 h1         1 Y44       0.063200
     38 H11        -19.2090    13.3960    27.6020 h1         1 Y44       0.062450
     39 H10        -19.3730    15.1320    27.2390 h1         1 Y44       0.062450
     40 C10        -20.5010    13.0020    25.2710 c          1 Y44       0.643700
     41 H13        -23.2930    13.4910    29.0840 ha         1 Y44       0.136000
@<TRIPOS>BOND
     1     1    10 1   
     2     1    15 1   
     3     1    23 1   
     4     2     7 1   
     5     2    10 1   
     6     2    14 1   
     7     3     4 ar  
     8     3    16 ar  
     9     3    24 1   
    10     4     5 ar  
    11     4    25 1   
    12     5    18 ar  
    13     5    26 1   
    14     6    16 ar  
    15     6    18 ar  
    16     6    27 1   
    17     7    17 1   
    18     7    28 1   
    19     7    29 1   
    20     8    12 1   
    21     8    13 2   
    22     8    41 1   
    23     9    14 1   
    24     9    19 1   
    25     9    30 1   
    26     9    31 1   
    27    10    20 2   
    28    11    12 2   
    29    11    22 1   
    30    11    40 1   
    31    12    32 1   
    32    13    22 1   
    33    13    33 1   
    34    14    34 1   
    35    14    35 1   
    36    15    16 1   
    37    15    36 1   
    38    15    37 1   
    39    17    19 1   
    40    17    38 1   
    41    17    39 1   
    42    19    40 1   
    43    21    40 2   
@<TRIPOS>SUBSTRUCTURE
     1 Y44         1 TEMP              0 ****  ****    0 ROOT
