@<TRIPOS>MOLECULE
Y44
   41    43     1     0     0
SMALL
abcg2


@<TRIPOS>ATOM
      1 N1         -15.3050    16.9220    25.1870 ns         1 Y44      -0.515900
      2 N3         -16.6930    15.2330    25.9370 n          1 Y44      -0.433800
      3 C4         -14.3910    19.8480    27.1670 ca         1 Y44      -0.050000
      4 C5         -14.9960    20.9470    27.7580 ca         1 Y44      -0.161000
      5 C6         -16.2270    21.3610    27.2750 ca         1 Y44       0.335900
      6 C7         -16.2620    19.7040    25.7160 ca         1 Y44       0.338900
      7 C8         -17.3080    14.4660    27.0010 c6         1 Y44       0.093000
      8 C13        -23.0380    13.6750    27.8360 cc         1 Y44      -0.145000
      9 C15        -18.1300    13.8370    24.5320 c6         1 Y44       0.087500
     10 C1         -15.7380    16.1600    26.2310 c          1 Y44       0.657100
     11 C11        -21.3950    13.1420    26.2870 cd         1 Y44      -0.300600
     12 C12        -21.8320    14.0620    27.2030 cc         1 Y44      -0.095000
     13 C14        -23.4960    12.4700    27.3900 cd         1 Y44      -0.255000
     14 C16        -17.2760    15.0870    24.6150 c6         1 Y44       0.093000
     15 C2         -14.4010    18.0210    25.4160 c3         1 Y44       0.164300
     16 C3         -15.0280    19.2020    26.1170 ca         1 Y44      -0.160300
     17 C9         -18.8160    14.4420    26.8300 c6         1 Y44       0.087500
     18 N2         -16.8540    20.7530    26.2730 nb         1 Y44      -0.667000
     19 N4         -19.1700    13.8390    25.5500 n          1 Y44      -0.401800
     20 O1         -15.2670    16.2890    27.3560 o          1 Y44      -0.634100
     21 O2         -20.4050    12.4170    24.3110 o          1 Y44      -0.610100
     22 S1         -22.4850    11.8090    26.1880 ss         1 Y44       0.315000
     23 H1         -15.8140    16.9360    24.3190 hn         1 Y44       0.308500
     24 H4         -13.4310    19.4920    27.5220 ha         1 Y44       0.123000
     25 H5         -14.5270    21.4700    28.5800 ha         1 Y44       0.125000
     26 H6         -16.7300    22.2160    27.7140 h4         1 Y44       0.019100
     27 H7         -16.8030    19.2310    24.9010 h4         1 Y44       0.008100
     28 H9         -16.9180    13.4440    27.0330 h1         1 Y44       0.057450
     29 H8         -17.0790    14.9260    27.9580 h1         1 Y44       0.057450
     30 H16        -17.5020    12.9450    24.6200 h1         1 Y44       0.062450
     31 H15        -18.5870    13.8100    23.5450 h1         1 Y44       0.062450
     32 H12        -21.3380    14.9980    27.4120 ha         1 Y44       0.134000
     33 H14        -24.3820    11.9420    27.7100 h4         1 Y44       0.152000
     34 H18        -16.4950    14.9820    23.8560 h1         1 Y44       0.057450
     35 H17        -17.8810    15.9610    24.3470 h1         1 Y44       0.057450
     36 H2         -13.5340    17.6810    25.9830 h1         1 Y44       0.063200
     37 H3         -14.0270    18.3350    24.4400 h1         1 Y44       0.063200
     38 H11        -19.2440    13.8630    27.6470 h1         1 Y44       0.062450
     39 H10        -19.1980    15.4630    26.9040 h1         1 Y44       0.062450
     40 C10        -20.2810    13.1120    25.3160 c          1 Y44       0.643700
     41 H13        -23.5410    14.2680    28.5860 ha         1 Y44       0.136000
@<TRIPOS>BOND
     1     1    10 1   
     2     1    15 1   
     3     1    23 1   
     4     2     7 1   
     5     2    10 1   
     6     2    14 1   
     7     3     4 ar  
     8     3    16 ar  
     9     3    24 1   
    10     4     5 ar  
    11     4    25 1   
    12     5    18 ar  
    13     5    26 1   
    14     6    16 ar  
    15     6    18 ar  
    16     6    27 1   
    17     7    17 1   
    18     7    28 1   
    19     7    29 1   
    20     8    12 1   
    21     8    13 2   
    22     8    41 1   
    23     9    14 1   
    24     9    19 1   
    25     9    30 1   
    26     9    31 1   
    27    10    20 2   
    28    11    12 2   
    29    11    22 1   
    30    11    40 1   
    31    12    32 1   
    32    13    22 1   
    33    13    33 1   
    34    14    34 1   
    35    14    35 1   
    36    15    16 1   
    37    15    36 1   
    38    15    37 1   
    39    17    19 1   
    40    17    38 1   
    41    17    39 1   
    42    19    40 1   
    43    21    40 2   
@<TRIPOS>SUBSTRUCTURE
     1 Y44         1 TEMP              0 ****  ****    0 ROOT
