@<TRIPOS>MOLECULE
Y45
   49    50     1     0     0
SMALL
No Charge or Current Charge


@<TRIPOS>ATOM
      1 C1          16.3070    -1.4970   -17.2290 c6         1 Y45       0.372300
      2 C2          15.6780    -1.1580   -15.8390 c6         1 Y45       0.164300
      3 C3          14.9160     0.2130   -15.9000 c6         1 Y45       0.143800
      4 C4          15.8290     1.3250   -16.4940 c6         1 Y45       0.146800
      5 C5          16.3750     0.8680   -17.8830 c6         1 Y45       0.160300
      6 C6          17.3620     1.9060   -18.5200 c3         1 Y45       0.166600
      7 O1          15.2980    -1.8240   -18.1860 oh         1 Y45      -0.686500
      8 O2          14.8220    -2.2550   -15.4100 os         1 Y45      -0.614900
      9 O3          14.4030     0.6400   -14.6170 oh         1 Y45      -0.701000
     10 O4          15.0790     2.5540   -16.5780 oh         1 Y45      -0.730500
     11 O5          17.0840    -0.3950   -17.7410 os         1 Y45      -0.464000
     12 O6          18.5940     2.0730   -17.7860 oh         1 Y45      -0.713500
     13 C11         11.4890    -2.8200   -12.6470 c6         1 Y45       0.372300
     14 O11         11.6340    -2.3060   -11.3200 oh         1 Y45      -0.686500
     15 OA2         13.4840    -1.5230   -13.5360 os         1 Y45      -0.614900
     16 C21         12.0770    -1.8480   -13.7440 c6         1 Y45       0.164300
     17 C31         11.2120    -0.5470   -13.8180 c6         1 Y45       0.143800
     18 C51          9.2400    -1.8600   -12.8810 c6         1 Y45       0.160300
     19 C61          7.7540    -2.3260   -13.0570 c3         1 Y45       0.166600
     20 OAN         15.8660    -2.3470   -13.0750 o          1 Y45      -0.804500
     21 PAM         14.6270    -2.6190   -13.8520 p5         1 Y45       1.398800
     22 OAO         14.1430    -4.0160   -13.6810 o          1 Y45      -0.804500
     23 O31         11.6360     0.3470   -14.8740 oh         1 Y45      -0.701000
     24 C41          9.7090    -0.8950   -14.0130 c6         1 Y45       0.146800
     25 O41          8.9460     0.3280   -14.0440 oh         1 Y45      -0.730500
     26 O61          7.5320    -3.1500   -14.2210 oh         1 Y45      -0.713500
     27 O51         10.0830    -3.0470   -12.8620 os         1 Y45      -0.464000
     28 H1          16.9720    -2.3660   -17.0950 h2         1 Y45       0.092700
     29 H2          16.5140    -1.0520   -15.1320 h1         1 Y45       0.082200
     30 H3          14.0730     0.0750   -16.5940 h1         1 Y45       0.062200
     31 H4          16.6880     1.4590   -15.8180 h1         1 Y45       0.068200
     32 H5          15.5340     0.7340   -18.5790 h1         1 Y45       0.060700
     33 H61         17.5830     1.5680   -19.5410 h1         1 Y45       0.026950
     34 H62         16.8430     2.8690   -18.6110 h1         1 Y45       0.026950
     35 HO1         14.6930    -2.4250   -17.6960 ho         1 Y45       0.462500
     36 HO3         14.2080    -0.1910   -14.0990 ho         1 Y45       0.484500
     37 HO4         14.5550     2.5740   -15.7410 ho         1 Y45       0.507000
     38 HO6         19.1550     2.6930   -18.3060 ho         1 Y45       0.488000
     39 H7          11.2080    -2.9730   -10.7410 ho         1 Y45       0.462500
     40 H8          11.9860    -2.3630   -14.7120 h1         1 Y45       0.082200
     41 H9          11.3130    -0.0360   -12.8480 h1         1 Y45       0.062200
     42 H10          9.3150    -1.3440   -11.9120 h1         1 Y45       0.060700
     43 H11          7.4720    -2.8810   -12.1520 h1         1 Y45       0.026950
     44 H12          7.1120    -1.4360   -13.0960 h1         1 Y45       0.026950
     45 H13         12.5980     0.5360   -14.7300 ho         1 Y45       0.484500
     46 H14          9.6030    -1.4240   -14.9730 h1         1 Y45       0.068200
     47 H16          9.5250     0.9560   -14.5420 ho         1 Y45       0.507000
     48 H17          6.5890    -3.4350   -14.1940 ho         1 Y45       0.488000
     49 H6          12.0020    -3.7900   -12.7150 h2         1 Y45       0.092700
@<TRIPOS>BOND
     1     1     2 1   
     2     1     7 1   
     3     1    11 1   
     4     1    28 1   
     5     2     3 1   
     6     2     8 1   
     7     2    29 1   
     8     3     4 1   
     9     3     9 1   
    10     3    30 1   
    11     4     5 1   
    12     4    10 1   
    13     4    31 1   
    14     5     6 1   
    15     5    11 1   
    16     5    32 1   
    17     6    12 1   
    18     6    33 1   
    19     6    34 1   
    20     7    35 1   
    21     8    21 1   
    22     9    36 1   
    23    10    37 1   
    24    12    38 1   
    25    13    14 1   
    26    13    16 1   
    27    13    27 1   
    28    13    49 1   
    29    14    39 1   
    30    15    16 1   
    31    15    21 1   
    32    16    17 1   
    33    16    40 1   
    34    17    23 1   
    35    17    24 1   
    36    17    41 1   
    37    18    19 1   
    38    18    24 1   
    39    18    27 1   
    40    18    42 1   
    41    19    26 1   
    42    19    43 1   
    43    19    44 1   
    44    20    21 1   
    45    21    22 1   
    46    23    45 1   
    47    24    25 1   
    48    24    46 1   
    49    25    47 1   
    50    26    48 1   
@<TRIPOS>SUBSTRUCTURE
     1 Y45         1 TEMP              0 ****  ****    0 ROOT
