@<TRIPOS>MOLECULE
Y45
   49    50     1     0     0
SMALL
abcg2


@<TRIPOS>ATOM
      1 C1          16.4470    -1.4270   -17.1750 c6         1 Y45       0.372300
      2 C2          15.6740    -1.1020   -15.8920 c6         1 Y45       0.164300
      3 C3          14.8950     0.1960   -16.0350 c6         1 Y45       0.143800
      4 C4          15.8100     1.3070   -16.5270 c6         1 Y45       0.146800
      5 C5          16.5110     0.8820   -17.8140 c6         1 Y45       0.160300
      6 C6          17.5030     1.8990   -18.3310 c3         1 Y45       0.166600
      7 O1          15.5700    -1.7970   -18.2240 oh         1 Y45      -0.686500
      8 O2          14.7950    -2.2070   -15.6550 os         1 Y45      -0.614900
      9 O3          14.3190     0.6350   -14.7980 oh         1 Y45      -0.701000
     10 O4          15.0690     2.4910   -16.8040 oh         1 Y45      -0.730500
     11 O5          17.2260    -0.3440   -17.5910 os         1 Y45      -0.464000
     12 O6          18.4710     2.1850   -17.3220 oh         1 Y45      -0.713500
     13 C11         11.4560    -2.7930   -12.5840 c6         1 Y45       0.372300
     14 O11         11.7630    -2.0990   -11.4000 oh         1 Y45      -0.686500
     15 OA2         13.3820    -1.7280   -13.6100 os         1 Y45      -0.614900
     16 C21         11.9810    -1.9940   -13.7780 c6         1 Y45       0.164300
     17 C31         11.2280    -0.6780   -13.9640 c6         1 Y45       0.143800
     18 C51          9.2940    -1.8030   -12.7890 c6         1 Y45       0.160300
     19 C61          7.8340    -2.1920   -12.8280 c3         1 Y45       0.166600
     20 OAN         15.7160    -2.5620   -13.3040 o          1 Y45      -0.804500
     21 PAM         14.5160    -2.7910   -14.1540 p5         1 Y45       1.398800
     22 OAO         13.8970    -4.1290   -14.3430 o          1 Y45      -0.804500
     23 O31         11.5690    -0.0620   -15.2000 oh         1 Y45      -0.701000
     24 C41          9.7260    -0.9360   -13.9780 c6         1 Y45       0.146800
     25 O41          9.0620     0.3250   -13.9230 oh         1 Y45      -0.730500
     26 O61          7.5360    -2.8450   -14.0630 oh         1 Y45      -0.713500
     27 O51         10.0680    -3.0100   -12.7370 os         1 Y45      -0.464000
     28 H1          17.1560    -2.2350   -16.9730 h2         1 Y45       0.092700
     29 H2          16.3890    -1.0190   -15.0710 h1         1 Y45       0.082200
     30 H3          14.0960     0.0480   -16.7700 h1         1 Y45       0.062200
     31 H4          16.5640     1.5050   -15.7580 h1         1 Y45       0.068200
     32 H5          15.7570     0.7320   -18.5940 h1         1 Y45       0.060700
     33 H61         17.9840     1.4880   -19.2240 h1         1 Y45       0.026950
     34 H62         16.9550     2.8010   -18.6140 h1         1 Y45       0.026950
     35 HO1         14.8620    -2.3330   -17.8370 ho         1 Y45       0.462500
     36 HO3         14.1050    -0.1380   -14.2420 ho         1 Y45       0.484500
     37 HO4         14.6160     2.7500   -15.9910 ho         1 Y45       0.507000
     38 HO6         19.0680     2.8620   -17.6620 ho         1 Y45       0.488000
     39 H7          11.6200    -2.6940   -10.6520 ho         1 Y45       0.462500
     40 H8          11.8300    -2.6070   -14.6680 h1         1 Y45       0.082200
     41 H9          11.4630    -0.0080   -13.1300 h1         1 Y45       0.062200
     42 H10          9.4540    -1.2290   -11.8710 h1         1 Y45       0.060700
     43 H11          7.6300    -2.8540   -11.9800 h1         1 Y45       0.026950
     44 H12          7.2290    -1.2880   -12.7110 h1         1 Y45       0.026950
     45 H13         12.4250     0.3880   -15.1000 ho         1 Y45       0.484500
     46 H14          9.4800    -1.4530   -14.9080 h1         1 Y45       0.068200
     47 H16          8.2240     0.2530   -14.3940 ho         1 Y45       0.507000
     48 H17          6.5910    -3.0350   -14.0820 ho         1 Y45       0.488000
     49 H6          11.9020    -3.7870   -12.5800 h2         1 Y45       0.092700
@<TRIPOS>BOND
     1     1     2 1   
     2     1     7 1   
     3     1    11 1   
     4     1    28 1   
     5     2     3 1   
     6     2     8 1   
     7     2    29 1   
     8     3     4 1   
     9     3     9 1   
    10     3    30 1   
    11     4     5 1   
    12     4    10 1   
    13     4    31 1   
    14     5     6 1   
    15     5    11 1   
    16     5    32 1   
    17     6    12 1   
    18     6    33 1   
    19     6    34 1   
    20     7    35 1   
    21     8    21 1   
    22     9    36 1   
    23    10    37 1   
    24    12    38 1   
    25    13    14 1   
    26    13    16 1   
    27    13    27 1   
    28    13    49 1   
    29    14    39 1   
    30    15    16 1   
    31    15    21 1   
    32    16    17 1   
    33    16    40 1   
    34    17    23 1   
    35    17    24 1   
    36    17    41 1   
    37    18    19 1   
    38    18    24 1   
    39    18    27 1   
    40    18    42 1   
    41    19    26 1   
    42    19    43 1   
    43    19    44 1   
    44    20    21 1   
    45    21    22 1   
    46    23    45 1   
    47    24    25 1   
    48    24    46 1   
    49    25    47 1   
    50    26    48 1   
@<TRIPOS>SUBSTRUCTURE
     1 Y45         1 TEMP              0 ****  ****    0 ROOT
