@<TRIPOS>MOLECULE
Y46
   42    44     1     0     0
SMALL
abcg2


@<TRIPOS>ATOM
      1 CAW         -4.5090    -0.3430     0.2930 ca         1 Y46      -0.099000
      2 CAX         -5.7380    -0.7040    -0.2390 ca         1 Y46      -0.106500
      3 CBA         -6.4010     0.1480    -1.1140 ca         1 Y46      -0.097000
      4 CAZ         -5.8270     1.3640    -1.4540 ca         1 Y46      -0.106500
      5 CAY         -4.5950     1.7240    -0.9240 ca         1 Y46      -0.099000
      6 CAV         -3.9260     0.8750    -0.0470 ca         1 Y46      -0.132300
      7 CAU         -2.6060     1.3060     0.5440 c3         1 Y46       0.133300
      8 NAN         -1.6120     0.2380     0.5970 n          1 Y46      -0.334000
      9 CAO         -0.9480    -0.1470    -0.5440 cc         1 Y46       0.413600
     10 NAP         -1.3050     0.4180    -1.6970 nv         1 Y46      -0.939000
     11 CAM         -1.3390    -0.3350     1.8320 c          1 Y46       0.627000
     12 OAL         -1.9400    -0.0160     2.8370 o          1 Y46      -0.552000
     13 NAD         -0.3610    -1.2790     1.8390 ns         1 Y46      -0.463500
     14 CAE          0.3940    -1.7200     0.7580 c          1 Y46       0.602200
     15 OAA          1.2100    -2.6140     0.9030 o          1 Y46      -0.547000
     16 CAF          0.0850    -1.0660    -0.4700 cd         1 Y46      -0.278200
     17 NAG          0.7600    -1.4350    -1.6510 nu         1 Y46      -0.693100
     18 SAH          2.1660    -0.6110    -2.0200 sy         1 Y46       1.127600
     19 OAC          2.7450    -1.3110    -3.1550 o          1 Y46      -0.545500
     20 OAQ          1.8010     0.7900    -2.1360 o          1 Y46      -0.545500
     21 CAI          3.2430    -0.7720    -0.6280 ca         1 Y46      -0.287500
     22 CAJ          4.0850    -1.8730    -0.5480 ca         1 Y46      -0.007000
     23 CAK          4.8940    -2.0170     0.5670 ca         1 Y46      -0.128500
     24 CAT          4.8490    -1.0770     1.5890 ca         1 Y46      -0.053000
     25 CAS          4.0010     0.0180     1.4960 ca         1 Y46      -0.128500
     26 CAR          3.1920     0.1810     0.3810 ca         1 Y46      -0.007000
     27 HAW         -4.0100    -1.0200     0.9750 ha         1 Y46       0.119000
     28 HAX         -6.1790    -1.6540     0.0320 ha         1 Y46       0.119500
     29 HBA         -7.3590    -0.1360    -1.5280 ha         1 Y46       0.119000
     30 HAZ         -6.3330     2.0330    -2.1380 ha         1 Y46       0.119500
     31 HAY         -4.1500     2.6740    -1.1980 ha         1 Y46       0.119000
     32 HAU1        -2.1870     2.1440    -0.0150 h1         1 Y46       0.085700
     33 HAU2        -2.7510     1.6630     1.5610 h1         1 Y46       0.085700
     34 HAP1        -2.2030     0.8530    -1.8270 hn         1 Y46       0.513000
     35 HAP2        -0.8510     0.0900    -2.5330 hn         1 Y46       0.513000
     36 HAD         -0.1840    -1.7200     2.7320 hn         1 Y46       0.348500
     37 HAG          0.8530    -2.4330    -1.8130 hn         1 Y46       0.493000
     38 HAJ          4.1180    -2.6090    -1.3390 ha         1 Y46       0.132000
     39 HAR          2.5400     1.0400     0.3060 ha         1 Y46       0.132000
     40 HAK          5.5610    -2.8660     0.6370 ha         1 Y46       0.116000
     41 HAT          5.4810    -1.1970     2.4580 ha         1 Y46       0.114000
     42 HAS          3.9700     0.7520     2.2900 ha         1 Y46       0.116000
@<TRIPOS>BOND
     1     1     2 ar  
     2     1     6 ar  
     3     1    27 1   
     4     2     3 ar  
     5     2    28 1   
     6     3     4 ar  
     7     3    29 1   
     8     4     5 ar  
     9     4    30 1   
    10     5     6 ar  
    11     5    31 1   
    12     6     7 1   
    13     7     8 1   
    14     7    32 1   
    15     7    33 1   
    16     8     9 1   
    17     8    11 1   
    18     9    10 1   
    19     9    16 2   
    20    10    34 1   
    21    10    35 1   
    22    11    12 2   
    23    11    13 1   
    24    13    14 1   
    25    13    36 1   
    26    14    15 2   
    27    14    16 1   
    28    16    17 1   
    29    17    18 1   
    30    17    37 1   
    31    18    19 2   
    32    18    20 2   
    33    18    21 1   
    34    21    22 ar  
    35    21    26 ar  
    36    22    23 ar  
    37    22    38 1   
    38    23    24 ar  
    39    23    40 1   
    40    24    25 ar  
    41    24    41 1   
    42    25    26 ar  
    43    25    42 1   
    44    26    39 1   
@<TRIPOS>SUBSTRUCTURE
     1 Y46         1 TEMP              0 ****  ****    0 ROOT
