@<TRIPOS>MOLECULE
Y46
   42    44     1     0     0
SMALL
No Charge or Current Charge


@<TRIPOS>ATOM
      1 CAW         -4.3520    -0.1960     0.3860 ca         1 Y46      -0.099000
      2 CAX         -5.5510    -0.0410    -0.3310 ca         1 Y46      -0.106500
      3 CBA         -5.7970     1.1450    -1.0430 ca         1 Y46      -0.097000
      4 CAZ         -4.8450     2.1770    -1.0350 ca         1 Y46      -0.106500
      5 CAY         -3.6450     2.0240    -0.3190 ca         1 Y46      -0.099000
      6 CAV         -3.3890     0.8340     0.3930 ca         1 Y46      -0.132300
      7 CAU         -2.0820     0.6650     1.1640 c3         1 Y46       0.133300
      8 NAN         -1.3550    -0.6010     0.8510 n          1 Y46      -0.334000
      9 CAO         -0.7120    -0.7950    -0.3670 cc         1 Y46       0.413600
     10 NAP         -0.8550     0.1700    -1.3050 nv         1 Y46      -0.939000
     11 CAM         -1.3020    -1.5960     1.8420 c          1 Y46       0.627000
     12 OAL         -1.8510    -1.5000     2.9270 o          1 Y46      -0.552000
     13 NAD         -0.5940    -2.7110     1.5430 ns         1 Y46      -0.463500
     14 CAE          0.0820    -2.9990     0.4090 c          1 Y46       0.602200
     15 OAA          0.6890    -4.0490     0.2730 o          1 Y46      -0.547000
     16 CAF          0.0140    -1.9390    -0.6300 cd         1 Y46      -0.278200
     17 NAG          0.7000    -2.1720    -1.8440 nu         1 Y46      -0.693100
     18 SAH          1.9970    -1.2510    -2.4260 sy         1 Y46       1.127600
     19 OAC          2.8780    -2.2680    -3.0060 o          1 Y46      -0.545500
     20 OAQ          1.3530    -0.2120    -3.2360 o          1 Y46      -0.545500
     21 CAI          2.7630    -0.5330    -0.9630 ca         1 Y46      -0.287500
     22 CAJ          3.6370    -1.3110    -0.1760 ca         1 Y46      -0.007000
     23 CAK          4.2150    -0.7630     0.9820 ca         1 Y46      -0.128500
     24 CAT          3.9230     0.5580     1.3610 ca         1 Y46      -0.053000
     25 CAS          3.0490     1.3330     0.5800 ca         1 Y46      -0.128500
     26 CAR          2.4680     0.7920    -0.5800 ca         1 Y46      -0.007000
     27 HAW         -4.1720    -1.1180     0.9350 ha         1 Y46       0.119000
     28 HAX         -6.2890    -0.8400    -0.3340 ha         1 Y46       0.119500
     29 HBA         -6.7260     1.2640    -1.5970 ha         1 Y46       0.119000
     30 HAZ         -5.0360     3.0970    -1.5830 ha         1 Y46       0.119500
     31 HAY         -2.9170     2.8340    -0.3170 ha         1 Y46       0.119000
     32 HAU1        -1.4130     1.5080     0.9470 h1         1 Y46       0.085700
     33 HAU2        -2.3030     0.7340     2.2370 h1         1 Y46       0.085700
     34 HAP1        -1.7400     0.6600    -1.3310 hn         1 Y46       0.513000
     35 HAP2        -0.4390    -0.0450    -2.2080 hn         1 Y46       0.513000
     36 HAD         -0.5640    -3.4150     2.2620 hn         1 Y46       0.348500
     37 HAG          1.0610    -3.1180    -1.9510 hn         1 Y46       0.493000
     38 HAJ          3.8660    -2.3390    -0.4540 ha         1 Y46       0.132000
     39 HAR          1.7880     1.4030    -1.1710 ha         1 Y46       0.132000
     40 HAK          4.8890    -1.3650     1.5880 ha         1 Y46       0.116000
     41 HAT          4.3710     0.9800     2.2580 ha         1 Y46       0.114000
     42 HAS          2.8200     2.3550     0.8740 ha         1 Y46       0.116000
@<TRIPOS>BOND
     1     1     2 ar  
     2     1     6 ar  
     3     1    27 1   
     4     2     3 ar  
     5     2    28 1   
     6     3     4 ar  
     7     3    29 1   
     8     4     5 ar  
     9     4    30 1   
    10     5     6 ar  
    11     5    31 1   
    12     6     7 1   
    13     7     8 1   
    14     7    32 1   
    15     7    33 1   
    16     8     9 1   
    17     8    11 1   
    18     9    10 1   
    19     9    16 2   
    20    10    34 1   
    21    10    35 1   
    22    11    12 2   
    23    11    13 1   
    24    13    14 1   
    25    13    36 1   
    26    14    15 2   
    27    14    16 1   
    28    16    17 1   
    29    17    18 1   
    30    17    37 1   
    31    18    19 2   
    32    18    20 2   
    33    18    21 1   
    34    21    22 ar  
    35    21    26 ar  
    36    22    23 ar  
    37    22    38 1   
    38    23    24 ar  
    39    23    40 1   
    40    24    25 ar  
    41    24    41 1   
    42    25    26 ar  
    43    25    42 1   
    44    26    39 1   
@<TRIPOS>SUBSTRUCTURE
     1 Y46         1 TEMP              0 ****  ****    0 ROOT
