@<TRIPOS>MOLECULE
Y47
   44    46     1     0     0
SMALL
abcg2


@<TRIPOS>ATOM
      1 N1         -18.8560    13.1050    25.4460 n          1 Y47      -0.410800
      2 N3         -15.3150    16.6310    25.6390 ns         1 Y47      -0.515900
      3 C4         -22.3640    11.9350    25.6240 cc         1 Y47      -0.104000
      4 C5         -21.2420    12.6950    25.7190 cd         1 Y47       0.053500
      5 C6         -20.0050    12.6240    24.9210 c          1 Y47       0.552600
      6 C7         -17.6910    13.3170    24.6150 c6         1 Y47       0.092500
      7 C8         -17.1910    14.7470    24.7720 c6         1 Y47       0.081000
      8 C10        -14.4680    17.7450    25.9980 c3         1 Y47       0.165300
      9 C13        -15.6830    20.9020    27.7190 ca         1 Y47      -0.162000
     10 C15        -16.2130    19.4910    25.4740 ca         1 Y47       0.339900
     11 C17        -18.5470    13.3350    26.8450 c6         1 Y47       0.092500
     12 C11        -15.2260    19.0070    26.3280 ca         1 Y47      -0.159300
     13 C12        -14.9660    19.7400    27.4760 ca         1 Y47      -0.046000
     14 C14        -16.6430    21.2900    26.7990 ca         1 Y47       0.336900
     15 C16        -18.0980    14.7660    27.0540 c6         1 Y47       0.081000
     16 C2         -22.6760    13.5350    27.1430 cd         1 Y47       0.159300
     17 C3         -23.2900    12.4730    26.5560 cc         1 Y47      -0.200000
     18 C9         -16.1330    16.0820    26.5780 c          1 Y47       0.648100
     19 N2         -16.9890    15.0900    26.1690 n          1 Y47      -0.414800
     20 N4         -16.9070    20.6000    25.6950 nb         1 Y47      -0.668000
     21 O1         -20.0720    12.1490    23.7940 o          1 Y47      -0.588100
     22 O2         -16.0710    16.4400    27.7480 o          1 Y47      -0.631100
     23 O3         -21.4350    13.6720    26.6370 os         1 Y47      -0.237000
     24 H10        -15.4940    16.5050    24.6590 hn         1 Y47       0.309500
     25 H5         -22.5080    11.0880    24.9720 ha         1 Y47       0.156000
     26 H6         -16.9020    12.6150    24.9030 h1         1 Y47       0.064950
     27 H7         -17.9330    13.1370    23.5710 h1         1 Y47       0.064950
     28 H9         -16.2500    14.8000    24.2270 h1         1 Y47       0.055700
     29 H8         -17.8990    15.4340    24.2920 h1         1 Y47       0.055700
     30 H11        -13.8240    17.4750    26.8350 h1         1 Y47       0.061200
     31 H12        -13.8090    17.9250    25.1480 h1         1 Y47       0.061200
     32 H14        -15.5070    21.4940    28.6080 ha         1 Y47       0.124000
     33 H16        -16.4570    18.9490    24.5650 h4         1 Y47       0.008100
     34 H20        -17.7380    12.6530    27.1260 h1         1 Y47       0.064950
     35 H19        -19.3870    13.1110    27.4920 h1         1 Y47       0.064950
     36 H3         -23.0860    15.5310    27.7900 hc         1 Y47       0.058033
     37 H2         -24.1280    14.2860    28.4790 hc         1 Y47       0.058033
     38 H1         -22.4710    14.4700    29.0550 hc         1 Y47       0.058033
     39 H13        -14.2130    19.4030    28.1780 ha         1 Y47       0.123000
     40 H15        -17.2230    22.1920    26.9580 h4         1 Y47       0.018100
     41 H17        -17.7820    14.8920    28.0850 h1         1 Y47       0.055700
     42 H18        -18.9440    15.4420    26.8770 h1         1 Y47       0.055700
     43 H4         -24.2880    12.1220    26.7660 ha         1 Y47       0.145000
     44 C1         -23.1090    14.5080    28.1700 c3         1 Y47      -0.128400
@<TRIPOS>BOND
     1     1     5 1   
     2     1     6 1   
     3     1    11 1   
     4     2     8 1   
     5     2    18 1   
     6     2    24 1   
     7     3     4 2   
     8     3    17 1   
     9     3    25 1   
    10     4     5 1   
    11     4    23 1   
    12     5    21 2   
    13     6     7 1   
    14     6    26 1   
    15     6    27 1   
    16     7    19 1   
    17     7    28 1   
    18     7    29 1   
    19     8    12 1   
    20     8    30 1   
    21     8    31 1   
    22     9    13 ar  
    23     9    14 ar  
    24     9    32 1   
    25    10    12 ar  
    26    10    20 ar  
    27    10    33 1   
    28    11    15 1   
    29    11    34 1   
    30    11    35 1   
    31    12    13 ar  
    32    13    39 1   
    33    14    20 ar  
    34    14    40 1   
    35    15    19 1   
    36    15    41 1   
    37    15    42 1   
    38    16    17 2   
    39    16    23 1   
    40    16    44 1   
    41    17    43 1   
    42    18    19 1   
    43    18    22 2   
    44    36    44 1   
    45    37    44 1   
    46    38    44 1   
@<TRIPOS>SUBSTRUCTURE
     1 Y47         1 TEMP              0 ****  ****    0 ROOT
