@<TRIPOS>MOLECULE
Y47
   44    46     1     0     0
SMALL
No Charge or Current Charge


@<TRIPOS>ATOM
      1 N1         -19.2690    13.5930    25.3920 n          1 Y47      -0.410800
      2 N3         -15.2580    16.7890    25.9700 ns         1 Y47      -0.515900
      3 C4         -22.6410    11.8610    25.4860 cc         1 Y47      -0.104000
      4 C5         -21.5520    12.6360    25.7950 cd         1 Y47       0.053500
      5 C6         -20.3650    12.8390    24.8940 c          1 Y47       0.552600
      6 C7         -18.1890    14.0020    24.4580 c6         1 Y47       0.092500
      7 C8         -17.3590    15.2190    24.9420 c6         1 Y47       0.081000
      8 C10        -14.2210    17.7700    26.2860 c3         1 Y47       0.165300
      9 C13        -16.0590    21.0410    26.9950 ca         1 Y47      -0.162000
     10 C15        -14.4010    19.9960    25.0710 ca         1 Y47       0.339900
     11 C17        -18.7300    13.3860    26.7640 c6         1 Y47       0.092500
     12 C11        -14.7520    19.1880    26.1700 ca         1 Y47      -0.159300
     13 C12        -15.6010    19.7240    27.1560 ca         1 Y47      -0.046000
     14 C14        -15.6580    21.7740    25.8660 ca         1 Y47       0.336900
     15 C16        -17.9680    14.6120    27.3150 c6         1 Y47       0.081000
     16 C2         -22.9560    12.8520    27.4490 cd         1 Y47       0.159300
     17 C3         -23.5410    11.9940    26.5600 cc         1 Y47      -0.200000
     18 C9         -15.9970    16.0970    26.8990 c          1 Y47       0.648100
     19 N2         -16.9690    15.2130    26.3860 n          1 Y47      -0.414800
     20 N4         -14.8400    21.2670    24.9140 nb         1 Y47      -0.668000
     21 O1         -20.3490    12.4040    23.7460 o          1 Y47      -0.588100
     22 O2         -15.8180    16.2400    28.0980 o          1 Y47      -0.631100
     23 O3         -21.7320    13.2870    27.0010 os         1 Y47      -0.237000
     24 H10        -15.4670    16.6100    24.9980 hn         1 Y47       0.309500
     25 H5         -22.7910    11.2610    24.5930 ha         1 Y47       0.156000
     26 H6         -17.5120    13.1480    24.3180 h1         1 Y47       0.064950
     27 H7         -18.6130    14.2420    23.4730 h1         1 Y47       0.064950
     28 H9         -16.4630    15.2760    24.3090 h1         1 Y47       0.055700
     29 H8         -17.9450    16.1300    24.7560 h1         1 Y47       0.055700
     30 H11        -13.8380    17.6000    27.3010 h1         1 Y47       0.061200
     31 H12        -13.3830    17.6270    25.5920 h1         1 Y47       0.061200
     32 H14        -16.7170    21.4940    27.7320 ha         1 Y47       0.124000
     33 H16        -13.7450    19.6160    24.2880 h4         1 Y47       0.008100
     34 H20        -18.0260    12.5420    26.7220 h1         1 Y47       0.064950
     35 H19        -19.4990    13.0940    27.4850 h1         1 Y47       0.064950
     36 H3         -23.6020    14.4460    28.7400 hc         1 Y47       0.058033
     37 H2         -24.4200    12.9000    29.0290 hc         1 Y47       0.058033
     38 H1         -22.7490    13.1320    29.5710 hc         1 Y47       0.058033
     39 H13        -15.8970    19.1340    28.0220 ha         1 Y47       0.123000
     40 H15        -15.9990    22.7970    25.7190 h4         1 Y47       0.018100
     41 H17        -17.4720    14.3140    28.2490 h1         1 Y47       0.055700
     42 H18        -18.7020    15.3880    27.5750 h1         1 Y47       0.055700
     43 H4         -24.5090    11.5110    26.6500 ha         1 Y47       0.145000
     44 C1         -23.4600    13.3590    28.7690 c3         1 Y47      -0.128400
@<TRIPOS>BOND
     1     1     5 1   
     2     1     6 1   
     3     1    11 1   
     4     2     8 1   
     5     2    18 1   
     6     2    24 1   
     7     3     4 2   
     8     3    17 1   
     9     3    25 1   
    10     4     5 1   
    11     4    23 1   
    12     5    21 2   
    13     6     7 1   
    14     6    26 1   
    15     6    27 1   
    16     7    19 1   
    17     7    28 1   
    18     7    29 1   
    19     8    12 1   
    20     8    30 1   
    21     8    31 1   
    22     9    13 ar  
    23     9    14 ar  
    24     9    32 1   
    25    10    12 ar  
    26    10    20 ar  
    27    10    33 1   
    28    11    15 1   
    29    11    34 1   
    30    11    35 1   
    31    12    13 ar  
    32    13    39 1   
    33    14    20 ar  
    34    14    40 1   
    35    15    19 1   
    36    15    41 1   
    37    15    42 1   
    38    16    17 2   
    39    16    23 1   
    40    16    44 1   
    41    17    43 1   
    42    18    19 1   
    43    18    22 2   
    44    36    44 1   
    45    37    44 1   
    46    38    44 1   
@<TRIPOS>SUBSTRUCTURE
     1 Y47         1 TEMP              0 ****  ****    0 ROOT
