@<TRIPOS>MOLECULE
Y49
   40    43     1     0     0
SMALL
abcg2


@<TRIPOS>ATOM
      1 C01          0.5980     8.5670   -24.5200 cp         1 Y49       0.238500
      2 N02          0.4110     7.9740   -25.6850 nb         1 Y49      -0.200000
      3 N03          1.0700     9.8160   -24.3670 nb         1 Y49      -0.166000
      4 C04          0.6920     8.6220   -26.8200 ca         1 Y49       0.055500
      5 C05          1.3470    10.4410   -25.4740 ca         1 Y49       0.185900
      6 C06          1.1800     9.9040   -26.7610 ca         1 Y49      -0.065400
      7 N07          1.8280    11.7110   -25.6240 n          1 Y49      -0.306500
      8 C08          1.9830    11.9960   -26.9850 c          1 Y49       0.603000
      9 N09          1.5710    10.8650   -27.6480 ns         1 Y49      -0.478600
     10 C10          2.1620    12.6070   -24.5800 ca         1 Y49       0.066600
     11 C11          3.1190    12.2380   -23.6450 ca         1 Y49      -0.091000
     12 C12          1.5250    13.8380   -24.4980 ca         1 Y49      -0.091000
     13 C13          3.4340    13.1090   -22.6130 ca         1 Y49      -0.105500
     14 C14          1.8590    14.7100   -23.4720 ca         1 Y49      -0.105500
     15 C15          2.8090    14.3460   -22.5270 ca         1 Y49      -0.109000
     16 C16          0.2660     7.8180   -23.2930 cp         1 Y49      -0.204500
     17 C17         -0.2830     6.5370   -23.3650 ca         1 Y49      -0.090500
     18 C18          0.4890     8.3780   -22.0350 ca         1 Y49      -0.090500
     19 C19         -0.6040     5.8440   -22.2100 ca         1 Y49      -0.108500
     20 C20          0.1670     7.6750   -20.8860 ca         1 Y49      -0.108500
     21 C21         -0.3880     6.4000   -20.9510 ca         1 Y49      -0.099600
     22 O22          2.4000    13.0230   -27.4580 o          1 Y49      -0.541000
     23 C23          0.4690     7.9410   -28.1320 c          1 Y49       0.522600
     24 O24          0.7200     8.5370   -29.1710 o          1 Y49      -0.641100
     25 N25         -0.0010     6.6990   -28.0500 nt         1 Y49      -0.576000
     26 C26         -0.7540     5.6360   -19.6780 c          1 Y49       0.711600
     27 O27         -0.5070     6.2110   -18.6020 o          1 Y49      -0.712500
     28 O28         -1.2680     4.5130   -19.8360 o          1 Y49      -0.712500
     29 H1           1.5620    10.7720   -28.6520 hn         1 Y49       0.491000
     30 H2           3.6170    11.2800   -23.7230 ha         1 Y49       0.128000
     31 H3           0.7690    14.1100   -25.2240 ha         1 Y49       0.128000
     32 H4           4.1760    12.8220   -21.8790 ha         1 Y49       0.113500
     33 H5           1.3670    15.6710   -23.4080 ha         1 Y49       0.113500
     34 H6           3.0610    15.0260   -21.7240 ha         1 Y49       0.110000
     35 H7          -0.4620     6.0830   -24.3300 ha         1 Y49       0.104500
     36 H8           0.9160     9.3690   -21.9560 ha         1 Y49       0.104500
     37 H9          -1.0330     4.8540   -22.2870 ha         1 Y49       0.132000
     38 H10          0.3480     8.1270   -19.9190 ha         1 Y49       0.132000
     39 H11         -0.1820     6.1620   -28.8830 hn         1 Y49       0.330500
     40 H12         -0.1850     6.2770   -27.1540 hn         1 Y49       0.330500
@<TRIPOS>BOND
     1     1     2 ar  
     2     1     3 ar  
     3     1    16 1   
     4     2     4 ar  
     5     3     5 ar  
     6     4     6 ar  
     7     4    23 1   
     8     5     6 ar  
     9     5     7 1   
    10     6     9 1   
    11     7     8 1   
    12     7    10 1   
    13     8     9 1   
    14     8    22 2   
    15     9    29 1   
    16    10    11 ar  
    17    10    12 ar  
    18    11    13 ar  
    19    11    30 1   
    20    12    14 ar  
    21    12    31 1   
    22    13    15 ar  
    23    13    32 1   
    24    14    15 ar  
    25    14    33 1   
    26    15    34 1   
    27    16    17 ar  
    28    16    18 ar  
    29    17    19 ar  
    30    17    35 1   
    31    18    20 ar  
    32    18    36 1   
    33    19    21 ar  
    34    19    37 1   
    35    20    21 ar  
    36    20    38 1   
    37    21    26 1   
    38    23    24 2   
    39    23    25 1   
    40    25    39 1   
    41    25    40 1   
    42    26    27 1   
    43    26    28 1   
@<TRIPOS>SUBSTRUCTURE
     1 Y49         1 TEMP              0 ****  ****    0 ROOT
