@<TRIPOS>MOLECULE
Y49
   40    43     1     0     0
SMALL
No Charge or Current Charge


@<TRIPOS>ATOM
      1 C01          0.5790     8.5340   -24.5030 cp         1 Y49       0.238500
      2 N02          0.4050     7.9060   -25.7030 nb         1 Y49      -0.200000
      3 N03          1.0110     9.8140   -24.3510 nb         1 Y49      -0.166000
      4 C04          0.6670     8.5870   -26.8530 ca         1 Y49       0.055500
      5 C05          1.3190    10.4640   -25.4840 ca         1 Y49       0.185900
      6 C06          1.1310     9.9060   -26.7300 ca         1 Y49      -0.065400
      7 N07          1.7030    11.8390   -25.6730 n          1 Y49      -0.306500
      8 C08          1.7820    12.0950   -27.0660 c          1 Y49       0.603000
      9 N09          1.4250    10.9140   -27.6510 ns         1 Y49      -0.478600
     10 C10          2.1140    12.7240   -24.6010 ca         1 Y49       0.066600
     11 C11          2.6400    12.2320   -23.3830 ca         1 Y49      -0.091000
     12 C12          2.0080    14.1240   -24.7620 ca         1 Y49      -0.091000
     13 C13          3.0320    13.1110   -22.3580 ca         1 Y49      -0.105500
     14 C14          2.3980    15.0030   -23.7370 ca         1 Y49      -0.105500
     15 C15          2.9090    14.4980   -22.5330 ca         1 Y49      -0.109000
     16 C16          0.2680     7.7490   -23.2500 cp         1 Y49      -0.204500
     17 C17         -0.1880     6.4040   -23.3070 ca         1 Y49      -0.090500
     18 C18          0.4180     8.3220   -21.9570 ca         1 Y49      -0.090500
     19 C19         -0.4760     5.6740   -22.1410 ca         1 Y49      -0.108500
     20 C20          0.1300     7.5920   -20.7910 ca         1 Y49      -0.108500
     21 C21         -0.3220     6.2560   -20.8630 ca         1 Y49      -0.099600
     22 O22          2.1270    13.1110   -27.6440 o          1 Y49      -0.541000
     23 C23          0.4390     7.9240   -28.1990 c          1 Y49       0.522600
     24 O24          0.6490     8.4830   -29.2660 o          1 Y49      -0.641100
     25 N25         -0.0170     6.6500   -28.2050 nt         1 Y49      -0.576000
     26 C26         -0.6350     5.4650   -19.5990 c          1 Y49       0.711600
     27 O27         -0.4870     6.0100   -18.5140 o          1 Y49      -0.712500
     28 O28         -1.0240     4.3100   -19.7110 o          1 Y49      -0.712500
     29 H1           1.4010    10.7890   -28.6610 hn         1 Y49       0.491000
     30 H2           2.7890    11.1690   -23.2240 ha         1 Y49       0.128000
     31 H3           1.5950    14.5460   -25.6740 ha         1 Y49       0.128000
     32 H4           3.4410    12.7160   -21.4310 ha         1 Y49       0.113500
     33 H5           2.3000    16.0780   -23.8760 ha         1 Y49       0.113500
     34 H6           3.2130    15.1770   -21.7400 ha         1 Y49       0.110000
     35 H7          -0.3230     5.9070   -24.2650 ha         1 Y49       0.104500
     36 H8           0.7630     9.3470   -21.8430 ha         1 Y49       0.104500
     37 H9          -0.8220     4.6470   -22.2370 ha         1 Y49       0.132000
     38 H10          0.2600     8.0740   -19.8250 ha         1 Y49       0.132000
     39 H11         -0.1780     6.1830   -29.0850 hn         1 Y49       0.330500
     40 H12         -0.1950     6.1750   -27.3310 hn         1 Y49       0.330500
@<TRIPOS>BOND
     1     1     2 ar  
     2     1     3 ar  
     3     1    16 1   
     4     2     4 ar  
     5     3     5 ar  
     6     4     6 ar  
     7     4    23 1   
     8     5     6 ar  
     9     5     7 1   
    10     6     9 1   
    11     7     8 1   
    12     7    10 1   
    13     8     9 1   
    14     8    22 2   
    15     9    29 1   
    16    10    11 ar  
    17    10    12 ar  
    18    11    13 ar  
    19    11    30 1   
    20    12    14 ar  
    21    12    31 1   
    22    13    15 ar  
    23    13    32 1   
    24    14    15 ar  
    25    14    33 1   
    26    15    34 1   
    27    16    17 ar  
    28    16    18 ar  
    29    17    19 ar  
    30    17    35 1   
    31    18    20 ar  
    32    18    36 1   
    33    19    21 ar  
    34    19    37 1   
    35    20    21 ar  
    36    20    38 1   
    37    21    26 1   
    38    23    24 2   
    39    23    25 1   
    40    25    39 1   
    41    25    40 1   
    42    26    27 1   
    43    26    28 1   
@<TRIPOS>SUBSTRUCTURE
     1 Y49         1 TEMP              0 ****  ****    0 ROOT
