@<TRIPOS>MOLECULE
Y4B
   57    60     1     0     0
SMALL
No Charge or Current Charge


@<TRIPOS>ATOM
      1 C03        150.9210   128.1170   191.8380 c6         1 Y4B      -0.047700
      2 C04        151.7960   129.4120   192.0540 c6         1 Y4B      -0.044700
      3 C05        152.0050   129.6670   193.5880 c5         1 Y4B      -0.062700
      4 C06        152.7290   128.5000   194.3250 c5         1 Y4B      -0.037000
      5 C07        150.5880   127.8610   190.3030 c6         1 Y4B      -0.031000
      6 C08        149.8470   129.1400   189.7380 c6         1 Y4B      -0.055700
      7 C09        151.5440   126.8800   192.5850 c6         1 Y4B      -0.069400
      8 C10        151.8540   127.2070   194.1020 c6         1 Y4B      -0.064400
      9 C11        151.1140   130.6500   191.3600 c6         1 Y4B      -0.069400
     10 C12        152.6990   129.0990   195.8080 c5         1 Y4B      -0.165700
     11 C13        152.8630   130.9060   194.1390 c5         1 Y4B      -0.069400
     12 C14        150.7020   130.4300   189.8610 c6         1 Y4B      -0.068400
     13 C15        149.5950   126.6520   190.1660 c6         1 Y4B      -0.063400
     14 C16        153.2830   130.5550   195.6430 c5         1 Y4B      -0.068400
     15 C17        149.3280   128.9500   188.2810 c6         1 Y4B      -0.062400
     16 C18        154.1790   128.1900   193.8160 c3         1 Y4B      -0.084100
     17 C19        151.9000   127.5370   189.4930 c3         1 Y4B      -0.081100
     18 C20        149.0520   126.4490   188.7220 c6         1 Y4B      -0.105400
     19 C21        148.3870   127.7250   188.1490 c6         1 Y4B       0.170300
     20 C22        153.5050   128.2800   196.8830 c          1 Y4B       0.576100
     21 C23        152.6630   127.4750   197.8720 c3         1 Y4B      -0.198100
     22 O01        147.1400   127.9750   188.8100 oh         1 Y4B      -0.669000
     23 O02        154.7270   128.2030   196.9220 o          1 Y4B      -0.527100
     24 H031       149.9620   128.3120   192.3380 hc         1 Y4B       0.043700
     25 H041       152.7820   129.2740   191.5940 hc         1 Y4B       0.051700
     26 H051       150.9830   129.7710   193.9750 hc         1 Y4B       0.042700
     27 H081       148.9570   129.3030   190.3640 hc         1 Y4B       0.059700
     28 H091       150.8600   126.0230   192.5550 hc         1 Y4B       0.040700
     29 H092       152.4670   126.5560   192.0900 hc         1 Y4B       0.040700
     30 H101       150.8980   127.3290   194.6290 hc         1 Y4B       0.038200
     31 H102       152.3390   126.3410   194.5730 hc         1 Y4B       0.038200
     32 H112       151.7840   131.5180   191.4220 hc         1 Y4B       0.039700
     33 H111       150.2150   130.9270   191.9280 hc         1 Y4B       0.039700
     34 H121       151.6560   129.1390   196.1480 hc         1 Y4B       0.058700
     35 H131       153.7510   131.0690   193.5180 hc         1 Y4B       0.045200
     36 H132       152.2870   131.8360   194.0920 hc         1 Y4B       0.045200
     37 H142       151.5970   130.3680   189.2280 hc         1 Y4B       0.039700
     38 H141       150.1320   131.3000   189.5080 hc         1 Y4B       0.039700
     39 H151       148.7460   126.7900   190.8500 hc         1 Y4B       0.041700
     40 H152       150.0820   125.7180   190.4760 hc         1 Y4B       0.041700
     41 H161       154.3720   130.5940   195.7610 hc         1 Y4B       0.053700
     42 H162       152.8520   131.2520   196.3710 hc         1 Y4B       0.053700
     43 H171       150.1690   128.8460   187.5840 hc         1 Y4B       0.048700
     44 H172       148.7900   129.8520   187.9580 hc         1 Y4B       0.048700
     45 H183       154.6020   127.3240   194.3390 hc         1 Y4B       0.039033
     46 H181       154.2050   127.9490   192.7480 hc         1 Y4B       0.039033
     47 H182       154.8730   129.0230   193.9690 hc         1 Y4B       0.039033
     48 H191       152.3550   126.5960   189.8220 hc         1 Y4B       0.032367
     49 H192       151.7160   127.4260   188.4200 hc         1 Y4B       0.032367
     50 H193       152.6640   128.3150   189.5930 hc         1 Y4B       0.032367
     51 H202       148.3330   125.6180   188.7130 hc         1 Y4B       0.041700
     52 H201       149.8660   126.1340   188.0560 hc         1 Y4B       0.041700
     53 H211       148.1940   127.5580   187.0780 h1         1 Y4B       0.031700
     54 H233       153.2710   126.8660   198.5510 hc         1 Y4B       0.060367
     55 H231       152.0080   128.1620   198.4200 hc         1 Y4B       0.060367
     56 H232       151.9440   126.8660   197.3130 hc         1 Y4B       0.060367
     57 H011       146.5980   127.1640   188.6980 ho         1 Y4B       0.436000
@<TRIPOS>BOND
     1     1     2 1   
     2     1     5 1   
     3     1     7 1   
     4     1    24 1   
     5     2     3 1   
     6     2     9 1   
     7     2    25 1   
     8     3     4 1   
     9     3    11 1   
    10     3    26 1   
    11     4     8 1   
    12     4    10 1   
    13     4    16 1   
    14     5     6 1   
    15     5    13 1   
    16     5    17 1   
    17     6    12 1   
    18     6    15 1   
    19     6    27 1   
    20     7     8 1   
    21     7    28 1   
    22     7    29 1   
    23     8    30 1   
    24     8    31 1   
    25     9    12 1   
    26     9    32 1   
    27     9    33 1   
    28    10    14 1   
    29    10    20 1   
    30    10    34 1   
    31    11    14 1   
    32    11    35 1   
    33    11    36 1   
    34    12    37 1   
    35    12    38 1   
    36    13    18 1   
    37    13    39 1   
    38    13    40 1   
    39    14    41 1   
    40    14    42 1   
    41    15    19 1   
    42    15    43 1   
    43    15    44 1   
    44    16    45 1   
    45    16    46 1   
    46    16    47 1   
    47    17    48 1   
    48    17    49 1   
    49    17    50 1   
    50    18    19 1   
    51    18    51 1   
    52    18    52 1   
    53    19    22 1   
    54    19    53 1   
    55    20    21 1   
    56    20    23 2   
    57    21    54 1   
    58    21    55 1   
    59    21    56 1   
    60    22    57 1   
@<TRIPOS>SUBSTRUCTURE
     1 Y4B         1 TEMP              0 ****  ****    0 ROOT
