@<TRIPOS>MOLECULE
Y4B
   57    60     1     0     0
SMALL
abcg2


@<TRIPOS>ATOM
      1 C03        150.8570   128.1850   191.9070 c6         1 Y4B      -0.047700
      2 C04        151.7570   129.4310   192.0870 c6         1 Y4B      -0.044700
      3 C05        151.9500   129.6960   193.5750 c5         1 Y4B      -0.062700
      4 C06        152.5820   128.5100   194.3380 c5         1 Y4B      -0.037000
      5 C07        150.5880   127.8630   190.4070 c6         1 Y4B      -0.031000
      6 C08        149.9500   129.1280   189.7700 c6         1 Y4B      -0.055700
      7 C09        151.3700   126.9870   192.7230 c6         1 Y4B      -0.069400
      8 C10        151.6370   127.3170   194.1990 c6         1 Y4B      -0.064400
      9 C11        151.1570   130.6460   191.3750 c6         1 Y4B      -0.069400
     10 C12        152.6830   129.1500   195.7650 c5         1 Y4B      -0.165700
     11 C13        152.7690   130.9100   194.0160 c5         1 Y4B      -0.069400
     12 C14        150.8370   130.3620   189.9110 c6         1 Y4B      -0.068400
     13 C15        149.5550   126.7220   190.2840 c6         1 Y4B      -0.063400
     14 C16        153.1080   130.6140   195.4980 c5         1 Y4B      -0.068400
     15 C17        149.5060   128.9050   188.3230 c6         1 Y4B      -0.062400
     16 C18        153.9860   128.1530   193.8280 c3         1 Y4B      -0.084100
     17 C19        151.8860   127.4500   189.6910 c3         1 Y4B      -0.081100
     18 C20        149.0790   126.4810   188.8490 c6         1 Y4B      -0.105400
     19 C21        148.5390   127.7390   188.1740 c6         1 Y4B       0.170300
     20 C22        153.5800   128.4020   196.7270 c          1 Y4B       0.576100
     21 C23        153.0020   127.1810   197.3940 c3         1 Y4B      -0.198100
     22 O01        147.2820   128.1480   188.7500 oh         1 Y4B      -0.669000
     23 O02        154.7270   128.7500   196.9530 o          1 Y4B      -0.527100
     24 H031       149.8800   128.4580   192.3310 hc         1 Y4B       0.043700
     25 H041       152.7360   129.2310   191.6430 hc         1 Y4B       0.051700
     26 H051       150.9450   129.8170   194.0020 hc         1 Y4B       0.042700
     27 H081       149.0420   129.3240   190.3530 hc         1 Y4B       0.059700
     28 H091       150.6420   126.1760   192.6790 hc         1 Y4B       0.040700
     29 H092       152.2870   126.5970   192.2760 hc         1 Y4B       0.040700
     30 H101       150.6910   127.5600   194.6950 hc         1 Y4B       0.038200
     31 H102       152.0380   126.4290   194.6930 hc         1 Y4B       0.038200
     32 H112       151.8370   131.4970   191.4560 hc         1 Y4B       0.039700
     33 H111       150.2330   130.9310   191.8930 hc         1 Y4B       0.039700
     34 H121       151.6730   129.1250   196.1830 hc         1 Y4B       0.058700
     35 H131       153.6790   130.9950   193.4170 hc         1 Y4B       0.045200
     36 H132       152.2200   131.8430   193.9000 hc         1 Y4B       0.045200
     37 H142       151.7640   130.2230   189.3440 hc         1 Y4B       0.039700
     38 H141       150.3300   131.2230   189.4650 hc         1 Y4B       0.039700
     39 H151       148.6940   126.9640   190.9150 hc         1 Y4B       0.041700
     40 H152       149.9750   125.7920   190.6720 hc         1 Y4B       0.041700
     41 H161       154.1710   130.7360   195.6960 hc         1 Y4B       0.053700
     42 H162       152.5760   131.2850   196.1740 hc         1 Y4B       0.053700
     43 H171       150.3730   128.7220   187.6830 hc         1 Y4B       0.048700
     44 H172       149.0260   129.8130   187.9450 hc         1 Y4B       0.048700
     45 H183       154.3810   127.2970   194.3800 hc         1 Y4B       0.039033
     46 H181       153.9770   127.8850   192.7730 hc         1 Y4B       0.039033
     47 H182       154.6870   128.9780   193.9540 hc         1 Y4B       0.039033
     48 H191       152.2710   126.5160   190.1030 hc         1 Y4B       0.032367
     49 H192       151.7250   127.2880   188.6260 hc         1 Y4B       0.032367
     50 H193       152.6690   128.2010   189.7880 hc         1 Y4B       0.032367
     51 H202       148.3050   125.7070   188.8390 hc         1 Y4B       0.041700
     52 H201       149.9010   126.0960   188.2390 hc         1 Y4B       0.041700
     53 H211       148.3810   127.5330   187.1090 h1         1 Y4B       0.031700
     54 H233       153.6850   126.8020   198.1520 hc         1 Y4B       0.060367
     55 H231       152.0320   127.4110   197.8380 hc         1 Y4B       0.060367
     56 H232       152.8310   126.4060   196.6440 hc         1 Y4B       0.060367
     57 H011       146.6880   127.3870   188.7350 ho         1 Y4B       0.436000
@<TRIPOS>BOND
     1     1     2 1   
     2     1     5 1   
     3     1     7 1   
     4     1    24 1   
     5     2     3 1   
     6     2     9 1   
     7     2    25 1   
     8     3     4 1   
     9     3    11 1   
    10     3    26 1   
    11     4     8 1   
    12     4    10 1   
    13     4    16 1   
    14     5     6 1   
    15     5    13 1   
    16     5    17 1   
    17     6    12 1   
    18     6    15 1   
    19     6    27 1   
    20     7     8 1   
    21     7    28 1   
    22     7    29 1   
    23     8    30 1   
    24     8    31 1   
    25     9    12 1   
    26     9    32 1   
    27     9    33 1   
    28    10    14 1   
    29    10    20 1   
    30    10    34 1   
    31    11    14 1   
    32    11    35 1   
    33    11    36 1   
    34    12    37 1   
    35    12    38 1   
    36    13    18 1   
    37    13    39 1   
    38    13    40 1   
    39    14    41 1   
    40    14    42 1   
    41    15    19 1   
    42    15    43 1   
    43    15    44 1   
    44    16    45 1   
    45    16    46 1   
    46    16    47 1   
    47    17    48 1   
    48    17    49 1   
    49    17    50 1   
    50    18    19 1   
    51    18    51 1   
    52    18    52 1   
    53    19    22 1   
    54    19    53 1   
    55    20    21 1   
    56    20    23 2   
    57    21    54 1   
    58    21    55 1   
    59    21    56 1   
    60    22    57 1   
@<TRIPOS>SUBSTRUCTURE
     1 Y4B         1 TEMP              0 ****  ****    0 ROOT
