@<TRIPOS>MOLECULE
Y4E
   26    28     1     0     0
SMALL
abcg2


@<TRIPOS>ATOM
      1 C10        -27.1660     3.2360    60.8550 ca         1 Y4E      -0.116000
      2 C11        -28.2800     3.0190    61.6490 ca         1 Y4E      -0.104000
      3 C12        -29.3410     3.9300    61.6650 ca         1 Y4E      -0.123000
      4 C13        -29.2470     5.0520    60.8680 ca         1 Y4E       0.219000
      5 C02        -27.4110     7.8480    57.5700 c3         1 Y4E       0.082600
      6 C03        -27.2500     7.3280    58.9860 c5         1 Y4E       0.384500
      7 C05        -28.7900     8.1650    61.0000 c5         1 Y4E      -0.004400
      8 C06        -29.4210     7.1600    60.0130 c5         1 Y4E       0.450700
      9 C08        -28.1150     5.2770    60.0750 ca         1 Y4E       0.216000
     10 C09        -27.0720     4.3760    60.0480 ca         1 Y4E      -0.099000
     11 N07        -28.3170     6.4580    59.3590 nh         1 Y4E      -0.741400
     12 N14        -30.1540     6.0770    60.6340 nu         1 Y4E      -0.904200
     13 S01        -27.3520     6.4750    56.3680 sh         1 Y4E      -0.415800
     14 S04        -27.2960     8.7710    60.1740 ss         1 Y4E      -0.497000
     15 H101       -26.3550     2.5200    60.8530 ha         1 Y4E       0.115000
     16 H111       -28.3340     2.1330    62.2680 ha         1 Y4E       0.114000
     17 H121       -30.2090     3.7590    62.2890 ha         1 Y4E       0.118000
     18 H022       -26.6230     8.5600    57.3300 h1         1 Y4E       0.081200
     19 H021       -28.3660     8.3610    57.4560 h1         1 Y4E       0.081200
     20 H031       -26.2900     6.8210    59.0860 h2         1 Y4E       0.093700
     21 H051       -29.4630     8.9950    61.2070 h1         1 Y4E       0.080200
     22 H052       -28.5330     7.6730    61.9390 h1         1 Y4E       0.080200
     23 H061       -30.0390     7.6960    59.2900 h2         1 Y4E       0.103700
     24 H091       -26.2050     4.5370    59.4210 ha         1 Y4E       0.122000
     25 H141       -30.7940     6.3300    61.3720 hn         1 Y4E       0.466000
     26 H011       -26.1260     6.7120    55.8920 hs         1 Y4E       0.195800
@<TRIPOS>BOND
     1     1     2 ar  
     2     1    10 ar  
     3     1    15 1   
     4     2     3 ar  
     5     2    16 1   
     6     3     4 ar  
     7     3    17 1   
     8     4     9 ar  
     9     4    12 1   
    10     5     6 1   
    11     5    13 1   
    12     5    18 1   
    13     5    19 1   
    14     6    11 1   
    15     6    14 1   
    16     6    20 1   
    17     7     8 1   
    18     7    14 1   
    19     7    21 1   
    20     7    22 1   
    21     8    11 1   
    22     8    12 1   
    23     8    23 1   
    24     9    10 ar  
    25     9    11 1   
    26    10    24 1   
    27    12    25 1   
    28    13    26 1   
@<TRIPOS>SUBSTRUCTURE
     1 Y4E         1 TEMP              0 ****  ****    0 ROOT
