@<TRIPOS>MOLECULE
Y4E
   26    28     1     0     0
SMALL
No Charge or Current Charge


@<TRIPOS>ATOM
      1 C10        -27.2230     3.1950    60.4950 ca         1 Y4E      -0.116000
      2 C11        -28.2270     2.9630    61.4650 ca         1 Y4E      -0.104000
      3 C12        -29.2370     3.9230    61.6920 ca         1 Y4E      -0.123000
      4 C13        -29.2240     5.0960    60.9260 ca         1 Y4E       0.219000
      5 C02        -27.3080     7.6970    57.4770 c3         1 Y4E       0.082600
      6 C03        -27.3490     7.4870    59.0130 c5         1 Y4E       0.384500
      7 C05        -28.9300     8.3130    60.9990 c5         1 Y4E      -0.004400
      8 C06        -29.5980     7.2510    60.0940 c5         1 Y4E       0.450700
      9 C08        -28.2400     5.3210    59.9870 ca         1 Y4E       0.216000
     10 C09        -27.2180     4.3920    59.7470 ca         1 Y4E      -0.099000
     11 N07        -28.4480     6.5830    59.4500 nh         1 Y4E      -0.741400
     12 N14        -30.1090     6.1780    61.0130 nu         1 Y4E      -0.904200
     13 S01        -26.8770     6.2420    56.3930 sh         1 Y4E      -0.415800
     14 S04        -27.6950     9.1130    59.8700 ss         1 Y4E      -0.497000
     15 H101       -26.4460     2.4510    60.3310 ha         1 Y4E       0.115000
     16 H111       -28.2180     2.0400    62.0420 ha         1 Y4E       0.114000
     17 H121       -30.0080     3.7570    62.4400 ha         1 Y4E       0.118000
     18 H022       -26.5770     8.4880    57.2670 h1         1 Y4E       0.081200
     19 H021       -28.2890     8.0710    57.1600 h1         1 Y4E       0.081200
     20 H031       -26.3740     7.1140    59.3570 h2         1 Y4E       0.093700
     21 H051       -29.6510     9.0430    61.3870 h1         1 Y4E       0.080200
     22 H052       -28.3990     7.8550    61.8440 h1         1 Y4E       0.080200
     23 H061       -30.3360     7.6630    59.3860 h2         1 Y4E       0.103700
     24 H091       -26.4450     4.5880    59.0100 ha         1 Y4E       0.122000
     25 H141       -30.4950     6.3970    61.9310 hn         1 Y4E       0.466000
     26 H011       -25.6300     6.0480    56.8880 hs         1 Y4E       0.195800
@<TRIPOS>BOND
     1     1     2 ar  
     2     1    10 ar  
     3     1    15 1   
     4     2     3 ar  
     5     2    16 1   
     6     3     4 ar  
     7     3    17 1   
     8     4     9 ar  
     9     4    12 1   
    10     5     6 1   
    11     5    13 1   
    12     5    18 1   
    13     5    19 1   
    14     6    11 1   
    15     6    14 1   
    16     6    20 1   
    17     7     8 1   
    18     7    14 1   
    19     7    21 1   
    20     7    22 1   
    21     8    11 1   
    22     8    12 1   
    23     8    23 1   
    24     9    10 ar  
    25     9    11 1   
    26    10    24 1   
    27    12    25 1   
    28    13    26 1   
@<TRIPOS>SUBSTRUCTURE
     1 Y4E         1 TEMP              0 ****  ****    0 ROOT
