@<TRIPOS>MOLECULE
Y4F
   66    72     1     0     0
SMALL
abcg2


@<TRIPOS>ATOM
      1 C4         -51.2190    39.9310    54.4460 ca         1 Y4F       0.134500
      2 C8         -52.0010    38.0920    53.5560 cc         1 Y4F       0.420700
      3 C1         -49.8010    38.8400    52.6490 c5         1 Y4F       0.273300
      4 C16        -47.0440    40.2860    53.8920 c3         1 Y4F       0.201600
      5 C2         -51.0780    41.7100    55.7310 ca         1 Y4F       0.167900
      6 C9         -49.4830    40.0850    51.8140 c5         1 Y4F       0.107300
      7 C21        -44.1930    39.1800    51.6620 c5         1 Y4F       0.168300
      8 C22        -44.2810    37.7630    51.1040 c5         1 Y4F       0.136300
      9 C24        -43.8770    37.9680    49.6510 c5         1 Y4F       0.150300
     10 C25        -45.0390    38.1790    48.6990 c3         1 Y4F       0.230600
     11 C3         -47.9930    39.8830    51.5430 c5         1 Y4F       0.225300
     12 C32        -42.9790    39.7300    50.9000 c5         1 Y4F       0.294300
     13 C34        -44.0140    41.9470    50.2680 cc         1 Y4F       0.464700
     14 C36        -41.9660    42.0080    51.0250 ca         1 Y4F       0.166500
     15 C37        -42.4450    43.2760    50.7410 ca         1 Y4F      -0.067600
     16 C38        -41.5660    44.3460    50.9800 ca         1 Y4F       0.430900
     17 C7         -47.5280    39.2650    52.8650 c5         1 Y4F       0.119300
     18 C40        -40.0230    42.7930    51.6810 ca         1 Y4F       0.150900
     19 C5         -52.4360    39.5630    54.9990 ca         1 Y4F      -0.106600
     20 C6         -52.9470    40.4020    56.0070 ca         1 Y4F       0.436900
     21 N01        -54.1020    40.1580    56.6300 nv         1 Y4F      -1.082900
     22 N1         -52.2320    41.4780    56.3500 nb         1 Y4F      -0.316000
     23 N3         -50.4980    41.0000    54.7790 nb         1 Y4F      -0.177000
     24 N33        -42.9860    41.1580    50.7120 na         1 Y4F      -0.262300
     25 N35        -43.7300    43.2150    50.2670 nd         1 Y4F      -0.591100
     26 N39        -40.3480    44.0640    51.4570 nb         1 Y4F      -0.332000
     27 N42        -40.7570    41.7110    51.4940 nb         1 Y4F      -0.193000
     28 N64        -41.9020    45.6210    50.7630 nv         1 Y4F      -1.088900
     29 N7         -52.9090    38.4100    54.4260 nd         1 Y4F      -0.590100
     30 N9         -50.9520    38.9710    53.5060 na         1 Y4F      -0.273300
     31 O17        -45.8560    40.9260    53.4710 os         1 Y4F      -0.602400
     32 O2         -50.2450    40.1790    50.6520 oh         1 Y4F      -0.667000
     33 O20        -44.0660    39.1370    53.0520 os         1 Y4F      -0.598400
     34 O23        -43.3330    36.9190    51.7080 oh         1 Y4F      -0.745000
     35 O26        -45.7450    39.3500    49.0290 os         1 Y4F      -0.614400
     36 O28        -47.8060    38.9690    50.4860 os         1 Y4F      -0.601400
     37 O31        -42.9980    39.0950    49.6470 os         1 Y4F      -0.461000
     38 O4         -48.6610    38.5910    53.4200 os         1 Y4F      -0.459000
     39 P18        -44.3740    40.4570    54.0090 p5         1 Y4F       1.397800
     40 P27        -47.3870    39.4790    48.9690 p5         1 Y4F       1.408800
     41 H4         -52.0300    37.2280    52.9080 h5         1 Y4F       0.065800
     42 H5         -50.0220    37.9990    51.9780 h2         1 Y4F       0.084700
     43 H10        -47.8050    41.0580    54.0350 h1         1 Y4F       0.046700
     44 H11        -46.9070    39.7850    54.8540 h1         1 Y4F       0.046700
     45 H1         -50.5460    42.5990    56.0530 h5         1 Y4F       0.045100
     46 H6         -49.5890    40.9760    52.4450 h1         1 Y4F       0.065700
     47 H13        -45.0900    39.7240    51.3580 h1         1 Y4F       0.073700
     48 H14        -45.2970    37.3580    51.1940 h1         1 Y4F       0.060700
     49 H16        -43.3280    37.0900    49.2930 h1         1 Y4F       0.052700
     50 H17        -45.6650    37.2820    48.7320 h1         1 Y4F       0.024200
     51 H18        -44.6530    38.2590    47.6770 h1         1 Y4F       0.024200
     52 H8         -47.4890    40.8330    51.3470 h1         1 Y4F       0.104700
     53 H20        -42.0570    39.5020    51.4430 h2         1 Y4F       0.100700
     54 H21        -44.9530    41.5300    49.9370 h5         1 Y4F       0.103800
     55 H9         -46.7450    38.5230    52.6880 h1         1 Y4F       0.084700
     56 H12        -39.0210    42.6310    52.0650 h5         1 Y4F       0.015100
     57 H2         -54.4570    40.8060    57.3120 hn         1 Y4F       0.494500
     58 H3         -54.6830    39.3850    56.3590 hn         1 Y4F       0.494500
     59 H23        -41.2190    46.3500    50.8790 hn         1 Y4F       0.487000
     60 H22        -42.7800    45.8570    50.3330 hn         1 Y4F       0.487000
     61 H7         -51.0960    40.5660    50.8760 ho         1 Y4F       0.485000
     62 H15        -43.4400    36.9860    52.6640 ho         1 Y4F       0.530000
     63 O19        -43.4470    41.5630    53.6330 o          1 Y4F      -0.804500
     64 O29        -47.9360    38.4540    48.0320 o          1 Y4F      -0.813000
     65 O30        -47.6320    40.9460    48.8330 o          1 Y4F      -0.813000
     66 O44        -44.4630    39.9030    55.3910 o          1 Y4F      -0.804500
@<TRIPOS>BOND
     1     1    19 ar  
     2     1    23 ar  
     3     1    30 1   
     4     2    29 2   
     5     2    30 1   
     6     2    41 1   
     7     3     6 1   
     8     3    30 1   
     9     3    38 1   
    10     3    42 1   
    11     4    17 1   
    12     4    31 1   
    13     4    43 1   
    14     4    44 1   
    15     5    22 ar  
    16     5    23 ar  
    17     5    45 1   
    18     6    11 1   
    19     6    32 1   
    20     6    46 1   
    21     7     8 1   
    22     7    12 1   
    23     7    33 1   
    24     7    47 1   
    25     8     9 1   
    26     8    34 1   
    27     8    48 1   
    28     9    10 1   
    29     9    37 1   
    30     9    49 1   
    31    10    35 1   
    32    10    50 1   
    33    10    51 1   
    34    11    17 1   
    35    11    36 1   
    36    11    52 1   
    37    12    24 1   
    38    12    37 1   
    39    12    53 1   
    40    13    24 1   
    41    13    25 2   
    42    13    54 1   
    43    14    15 ar  
    44    14    24 1   
    45    14    27 ar  
    46    15    16 ar  
    47    15    25 1   
    48    16    26 ar  
    49    16    28 1   
    50    17    38 1   
    51    17    55 1   
    52    18    26 ar  
    53    18    27 ar  
    54    18    56 1   
    55    19    20 ar  
    56    19    29 1   
    57    20    21 1   
    58    20    22 ar  
    59    21    57 1   
    60    21    58 1   
    61    28    59 1   
    62    28    60 1   
    63    31    39 1   
    64    32    61 1   
    65    33    39 1   
    66    34    62 1   
    67    35    40 1   
    68    36    40 1   
    69    39    63 1   
    70    39    66 1   
    71    40    64 1   
    72    40    65 1   
@<TRIPOS>SUBSTRUCTURE
     1 Y4F         1 TEMP              0 ****  ****    0 ROOT
