@<TRIPOS>MOLECULE
Y4F
   66    72     1     0     0
SMALL
No Charge or Current Charge


@<TRIPOS>ATOM
      1 C4         -51.6110    39.5180    54.4490 ca         1 Y4F       0.134500
      2 C8         -51.8620    37.7930    53.0560 cc         1 Y4F       0.420700
      3 C1         -49.6840    39.0690    52.8540 c5         1 Y4F       0.273300
      4 C16        -46.8780    40.4820    54.5080 c3         1 Y4F       0.201600
      5 C2         -52.1210    41.0100    56.1080 ca         1 Y4F       0.167900
      6 C9         -49.4260    40.4860    52.2690 c5         1 Y4F       0.107300
      7 C21        -44.3570    39.4210    52.0090 c5         1 Y4F       0.168300
      8 C22        -44.6570    38.0170    51.4030 c5         1 Y4F       0.136300
      9 C24        -44.0950    38.2190    49.9690 c5         1 Y4F       0.150300
     10 C25        -45.0380    38.9310    48.9390 c3         1 Y4F       0.230600
     11 C3         -47.8700    40.3750    52.0810 c5         1 Y4F       0.225300
     12 C32        -42.9980    39.8330    51.3210 c5         1 Y4F       0.294300
     13 C34        -43.7850    42.2130    50.7510 cc         1 Y4F       0.464700
     14 C36        -41.6190    41.7690    50.4780 ca         1 Y4F       0.166500
     15 C37        -41.9050    43.0690    50.1430 ca         1 Y4F      -0.067600
     16 C38        -40.8450    43.8890    49.7000 ca         1 Y4F       0.430900
     17 C7         -47.4610    39.5820    53.3820 c5         1 Y4F       0.119300
     18 C40        -39.4170    42.1200    49.9630 ca         1 Y4F       0.150900
     19 C5         -52.8180    38.8930    54.6420 ca         1 Y4F      -0.106600
     20 C6         -53.6780    39.4010    55.6390 ca         1 Y4F       0.436900
     21 N01        -54.8950    38.8580    55.9060 nv         1 Y4F      -1.082900
     22 N1         -53.3340    40.4680    56.3770 nb         1 Y4F      -0.316000
     23 N3         -51.2320    40.5900    55.1760 nb         1 Y4F      -0.177000
     24 N33        -42.8070    41.2140    50.8610 na         1 Y4F      -0.262300
     25 N35        -43.2610    43.3730    50.3020 nd         1 Y4F      -0.591100
     26 N39        -39.5930    43.4160    49.6050 nb         1 Y4F      -0.332000
     27 N42        -40.3700    41.2640    50.3990 nb         1 Y4F      -0.193000
     28 N64        -41.0140    45.1900    49.3380 nv         1 Y4F      -1.088900
     29 N7         -53.0010    37.8090    53.7760 nd         1 Y4F      -0.590100
     30 N9         -51.0010    38.8250    53.4380 na         1 Y4F      -0.273300
     31 O17        -45.6740    41.1230    54.0470 os         1 Y4F      -0.602400
     32 O2         -50.1900    40.7950    51.0850 oh         1 Y4F      -0.667000
     33 O20        -44.2490    39.2170    53.4470 os         1 Y4F      -0.598400
     34 O23        -43.9630    36.9960    52.1390 oh         1 Y4F      -0.745000
     35 O26        -45.6590    40.1150    49.4780 os         1 Y4F      -0.614400
     36 O28        -47.5510    39.5350    50.9280 os         1 Y4F      -0.601400
     37 O31        -42.8530    38.9480    50.1790 os         1 Y4F      -0.461000
     38 O4         -48.6790    38.9600    53.8770 os         1 Y4F      -0.459000
     39 P18        -44.2100    40.5310    54.3820 p5         1 Y4F       1.397800
     40 P27        -47.2640    40.2780    49.5180 p5         1 Y4F       1.408800
     41 H4         -51.6110    37.0900    52.2700 h5         1 Y4F       0.065800
     42 H5         -49.5220    38.3020    52.0850 h2         1 Y4F       0.084700
     43 H10        -47.6250    41.2370    54.7850 h1         1 Y4F       0.046700
     44 H11        -46.6870    39.8620    55.3940 h1         1 Y4F       0.046700
     45 H1         -51.8300    41.8750    56.7020 h5         1 Y4F       0.045100
     46 H6         -49.6340    41.2420    53.0390 h1         1 Y4F       0.065700
     47 H13        -45.1590    40.1320    51.8000 h1         1 Y4F       0.073700
     48 H14        -45.7330    37.8010    51.3810 h1         1 Y4F       0.060700
     49 H16        -43.8380    37.2480    49.5260 h1         1 Y4F       0.052700
     50 H17        -45.7930    38.1980    48.6300 h1         1 Y4F       0.024200
     51 H18        -44.4530    39.1870    48.0470 h1         1 Y4F       0.024200
     52 H8         -47.3730    41.3540    52.0160 h1         1 Y4F       0.104700
     53 H20        -42.1730    39.6420    52.0190 h2         1 Y4F       0.100700
     54 H21        -44.8270    42.0530    51.0020 h5         1 Y4F       0.103800
     55 H9         -46.7450    38.7840    53.1570 h1         1 Y4F       0.084700
     56 H12        -38.4050    41.7270    49.8910 h5         1 Y4F       0.015100
     57 H2         -55.5720    39.4270    56.4070 hn         1 Y4F       0.494500
     58 H3         -55.2640    38.1970    55.2260 hn         1 Y4F       0.494500
     59 H23        -40.2900    45.6270    48.7740 hn         1 Y4F       0.487000
     60 H22        -41.9690    45.5120    49.1960 hn         1 Y4F       0.487000
     61 H7         -51.1320    40.8770    51.3560 ho         1 Y4F       0.485000
     62 H15        -43.8480    37.4160    53.0310 ho         1 Y4F       0.530000
     63 O19        -43.1360    41.4680    53.9550 o          1 Y4F      -0.804500
     64 O29        -47.9150    39.5780    48.3730 o          1 Y4F      -0.813000
     65 O30        -47.5990    41.7300    49.5530 o          1 Y4F      -0.813000
     66 O44        -44.0910    40.1680    55.8220 o          1 Y4F      -0.804500
@<TRIPOS>BOND
     1     1    19 ar  
     2     1    23 ar  
     3     1    30 1   
     4     2    29 2   
     5     2    30 1   
     6     2    41 1   
     7     3     6 1   
     8     3    30 1   
     9     3    38 1   
    10     3    42 1   
    11     4    17 1   
    12     4    31 1   
    13     4    43 1   
    14     4    44 1   
    15     5    22 ar  
    16     5    23 ar  
    17     5    45 1   
    18     6    11 1   
    19     6    32 1   
    20     6    46 1   
    21     7     8 1   
    22     7    12 1   
    23     7    33 1   
    24     7    47 1   
    25     8     9 1   
    26     8    34 1   
    27     8    48 1   
    28     9    10 1   
    29     9    37 1   
    30     9    49 1   
    31    10    35 1   
    32    10    50 1   
    33    10    51 1   
    34    11    17 1   
    35    11    36 1   
    36    11    52 1   
    37    12    24 1   
    38    12    37 1   
    39    12    53 1   
    40    13    24 1   
    41    13    25 2   
    42    13    54 1   
    43    14    15 ar  
    44    14    24 1   
    45    14    27 ar  
    46    15    16 ar  
    47    15    25 1   
    48    16    26 ar  
    49    16    28 1   
    50    17    38 1   
    51    17    55 1   
    52    18    26 ar  
    53    18    27 ar  
    54    18    56 1   
    55    19    20 ar  
    56    19    29 1   
    57    20    21 1   
    58    20    22 ar  
    59    21    57 1   
    60    21    58 1   
    61    28    59 1   
    62    28    60 1   
    63    31    39 1   
    64    32    61 1   
    65    33    39 1   
    66    34    62 1   
    67    35    40 1   
    68    36    40 1   
    69    39    63 1   
    70    39    66 1   
    71    40    64 1   
    72    40    65 1   
@<TRIPOS>SUBSTRUCTURE
     1 Y4F         1 TEMP              0 ****  ****    0 ROOT
