@<TRIPOS>MOLECULE
Y4H
   49    50     1     0     0
SMALL
No Charge or Current Charge


@<TRIPOS>ATOM
      1 C1          10.3150   -24.2580    16.5370 c6         1 Y4H       0.373800
      2 C2          11.3580   -23.7000    17.5700 c6         1 Y4H       0.182300
      3 C3          12.4420   -24.7720    17.8760 c6         1 Y4H       0.145300
      4 C4          11.7890   -26.1140    18.3100 c6         1 Y4H       0.118300
      5 C5          10.7810   -26.5750    17.2080 c6         1 Y4H       0.171800
      6 C6          10.0140   -27.8860    17.5970 c3         1 Y4H       0.168100
      7 O1          10.8950   -24.4310    15.2410 oh         1 Y4H      -0.657500
      8 O2          11.9960   -22.4770    17.1240 os         1 Y4H      -0.597900
      9 O3          13.3650   -24.3100    18.8800 oh         1 Y4H      -0.675500
     10 O4          12.8280   -27.0870    18.5500 oh         1 Y4H      -0.736500
     11 O5           9.7940   -25.5320    16.9710 os         1 Y4H      -0.466000
     12 O6           9.1270   -27.7360    18.7260 oh         1 Y4H      -0.704500
     13 OAN          9.7780   -21.2080    17.0350 o          1 Y4H      -0.804000
     14 PAM         11.2350   -21.0700    17.3170 p5         1 Y4H       1.405800
     15 OAO         11.8490   -19.9970    16.4820 o          1 Y4H      -0.804000
     16 OA2         11.5010   -20.8480    18.8940 os         1 Y4H      -0.597900
     17 C21         12.6410   -20.0780    19.3770 c6         1 Y4H       0.182300
     18 C31         13.8830   -20.9480    19.7670 c6         1 Y4H       0.145300
     19 O31         14.3960   -21.7480    18.6890 oh         1 Y4H      -0.675500
     20 C41         15.0310   -20.0350    20.2920 c6         1 Y4H       0.118300
     21 O41         16.1650   -20.8530    20.6690 oh         1 Y4H      -0.736500
     22 C51         14.5010   -19.1570    21.4740 c6         1 Y4H       0.171800
     23 C61         15.5700   -18.1560    22.0280 c3         1 Y4H       0.168100
     24 O61         16.0320   -17.2010    21.0530 oh         1 Y4H      -0.704500
     25 O51         13.3550   -18.3870    21.0270 os         1 Y4H      -0.466000
     26 C11         12.2450   -19.1850    20.6030 c6         1 Y4H       0.373800
     27 O11         11.2310   -18.2450    20.2840 oh         1 Y4H      -0.657500
     28 H1           9.4740   -23.5540    16.4590 h2         1 Y4H       0.057200
     29 H2          10.8150   -23.4940    18.5050 h1         1 Y4H       0.084700
     30 H3          12.9940   -24.9540    16.9410 h1         1 Y4H       0.046200
     31 H4          11.2230   -25.9360    19.2370 h1         1 Y4H       0.070700
     32 H5          11.3280   -26.7720    16.2750 h1         1 Y4H       0.047200
     33 H61          9.4400   -28.2070    16.7170 h1         1 Y4H       0.021950
     34 H62         10.7510   -28.6750    17.7990 h1         1 Y4H       0.021950
     35 HO1         11.3780   -23.5930    15.0700 ho         1 Y4H       0.463500
     36 HO3         13.5650   -23.3610    18.6520 ho         1 Y4H       0.467000
     37 HO4         13.5560   -26.5680    18.9710 ho         1 Y4H       0.509500
     38 HO6          8.6590   -28.5960    18.8370 ho         1 Y4H       0.489000
     39 H6          12.9650   -19.3860    18.5860 h1         1 Y4H       0.084700
     40 H8          13.5770   -21.6100    20.5920 h1         1 Y4H       0.046200
     41 H9          15.3500   -21.8580    18.9170 ho         1 Y4H       0.467000
     42 H10         15.3190   -19.3550    19.4750 h1         1 Y4H       0.070700
     43 H11         16.9410   -20.2510    20.7600 ho         1 Y4H       0.509500
     44 H12         14.1850   -19.8100    22.3010 h1         1 Y4H       0.047200
     45 H13         16.4170   -18.7310    22.4240 h1         1 Y4H       0.021950
     46 H14         15.1200   -17.6270    22.8790 h1         1 Y4H       0.021950
     47 H15         16.5680   -16.5320    21.5380 ho         1 Y4H       0.489000
     48 H16         11.9110   -19.8270    21.4340 h2         1 Y4H       0.057200
     49 H17         11.5810   -17.4070    20.6520 ho         1 Y4H       0.463500
@<TRIPOS>BOND
     1     1     2 1   
     2     1     7 1   
     3     1    11 1   
     4     1    28 1   
     5     2     3 1   
     6     2     8 1   
     7     2    29 1   
     8     3     4 1   
     9     3     9 1   
    10     3    30 1   
    11     4     5 1   
    12     4    10 1   
    13     4    31 1   
    14     5     6 1   
    15     5    11 1   
    16     5    32 1   
    17     6    12 1   
    18     6    33 1   
    19     6    34 1   
    20     7    35 1   
    21     8    14 1   
    22     9    36 1   
    23    10    37 1   
    24    12    38 1   
    25    13    14 1   
    26    14    15 1   
    27    14    16 1   
    28    16    17 1   
    29    17    18 1   
    30    17    26 1   
    31    17    39 1   
    32    18    19 1   
    33    18    20 1   
    34    18    40 1   
    35    19    41 1   
    36    20    21 1   
    37    20    22 1   
    38    20    42 1   
    39    21    43 1   
    40    22    23 1   
    41    22    25 1   
    42    22    44 1   
    43    23    24 1   
    44    23    45 1   
    45    23    46 1   
    46    24    47 1   
    47    25    26 1   
    48    26    27 1   
    49    26    48 1   
    50    27    49 1   
@<TRIPOS>SUBSTRUCTURE
     1 Y4H         1 TEMP              0 ****  ****    0 ROOT
