@<TRIPOS>MOLECULE
Y4H
   49    50     1     0     0
SMALL
abcg2


@<TRIPOS>ATOM
      1 C1          10.1950   -24.3200    16.5020 c6         1 Y4H       0.373800
      2 C2          11.0780   -23.7320    17.6090 c6         1 Y4H       0.182300
      3 C3          12.2230   -24.6680    17.9690 c6         1 Y4H       0.145300
      4 C4          11.6710   -26.0580    18.2610 c6         1 Y4H       0.118300
      5 C5          10.8450   -26.5390    17.0690 c6         1 Y4H       0.171800
      6 C6          10.2120   -27.9000    17.2660 c3         1 Y4H       0.168100
      7 O1          10.8480   -24.3280    15.2640 oh         1 Y4H      -0.657500
      8 O2          11.6110   -22.5030    17.1550 os         1 Y4H      -0.597900
      9 O3          12.9120   -24.2470    19.1180 oh         1 Y4H      -0.675500
     10 O4          12.7060   -26.9860    18.4780 oh         1 Y4H      -0.736500
     11 O5           9.7990   -25.6150    16.8100 os         1 Y4H      -0.466000
     12 O6           9.3900   -27.8890    18.4080 oh         1 Y4H      -0.704500
     13 OAN          9.5550   -21.2060    17.9730 o          1 Y4H      -0.804000
     14 PAM         11.0150   -21.0580    17.6930 p5         1 Y4H       1.405800
     15 OAO         11.5690   -20.0350    16.7570 o          1 Y4H      -0.804000
     16 OA2         11.7550   -20.9630    19.1630 os         1 Y4H      -0.597900
     17 C21         12.8630   -20.1320    19.4060 c6         1 Y4H       0.182300
     18 C31         14.0170   -20.9410    19.9820 c6         1 Y4H       0.145300
     19 O31         14.4580   -21.8680    19.0110 oh         1 Y4H      -0.675500
     20 C41         15.1440   -20.0010    20.3950 c6         1 Y4H       0.118300
     21 O41         16.1560   -20.7900    20.9770 oh         1 Y4H      -0.736500
     22 C51         14.5940   -18.9600    21.3750 c6         1 Y4H       0.171800
     23 C61         15.6290   -17.9740    21.8720 c3         1 Y4H       0.168100
     24 O61         16.2510   -17.3400    20.7810 oh         1 Y4H      -0.704500
     25 O51         13.5510   -18.2480    20.7420 os         1 Y4H      -0.466000
     26 C11         12.4480   -19.0610    20.4160 c6         1 Y4H       0.373800
     27 O11         11.4760   -18.2710    19.8460 oh         1 Y4H      -0.657500
     28 H1           9.2660   -23.7360    16.4470 h2         1 Y4H       0.057200
     29 H2          10.4480   -23.6000    18.4960 h1         1 Y4H       0.084700
     30 H3          12.9030   -24.7480    17.1060 h1         1 Y4H       0.046200
     31 H4          11.0140   -25.9880    19.1410 h1         1 Y4H       0.070700
     32 H5          11.5100   -26.6260    16.1990 h1         1 Y4H       0.047200
     33 H61          9.6430   -28.1460    16.3590 h1         1 Y4H       0.021950
     34 H62         11.0150   -28.6400    17.3430 h1         1 Y4H       0.021950
     35 HO1         11.3550   -23.5110    15.1880 ho         1 Y4H       0.463500
     36 HO3         13.3760   -23.4110    18.9420 ho         1 Y4H       0.467000
     37 HO4         13.2630   -26.6420    19.1830 ho         1 Y4H       0.509500
     38 HO6          9.0760   -28.7840    18.5600 ho         1 Y4H       0.489000
     39 H6          13.1990   -19.6340    18.4890 h1         1 Y4H       0.084700
     40 H8          13.6630   -21.4690    20.8830 h1         1 Y4H       0.046200
     41 H9          15.2850   -22.2530    19.3290 ho         1 Y4H       0.467000
     42 H10         15.5110   -19.4850    19.4980 h1         1 Y4H       0.070700
     43 H11         17.0040   -20.3520    20.8560 ho         1 Y4H       0.509500
     44 H12         14.2110   -19.4880    22.2650 h1         1 Y4H       0.047200
     45 H13         16.3470   -18.5230    22.4940 h1         1 Y4H       0.021950
     46 H14         15.1300   -17.2550    22.5350 h1         1 Y4H       0.021950
     47 H15         16.9720   -16.8000    21.1170 ho         1 Y4H       0.489000
     48 H16         12.0850   -19.5590    21.3330 h2         1 Y4H       0.057200
     49 H17         10.9870   -17.8150    20.5390 ho         1 Y4H       0.463500
@<TRIPOS>BOND
     1     1     2 1   
     2     1     7 1   
     3     1    11 1   
     4     1    28 1   
     5     2     3 1   
     6     2     8 1   
     7     2    29 1   
     8     3     4 1   
     9     3     9 1   
    10     3    30 1   
    11     4     5 1   
    12     4    10 1   
    13     4    31 1   
    14     5     6 1   
    15     5    11 1   
    16     5    32 1   
    17     6    12 1   
    18     6    33 1   
    19     6    34 1   
    20     7    35 1   
    21     8    14 1   
    22     9    36 1   
    23    10    37 1   
    24    12    38 1   
    25    13    14 1   
    26    14    15 1   
    27    14    16 1   
    28    16    17 1   
    29    17    18 1   
    30    17    26 1   
    31    17    39 1   
    32    18    19 1   
    33    18    20 1   
    34    18    40 1   
    35    19    41 1   
    36    20    21 1   
    37    20    22 1   
    38    20    42 1   
    39    21    43 1   
    40    22    23 1   
    41    22    25 1   
    42    22    44 1   
    43    23    24 1   
    44    23    45 1   
    45    23    46 1   
    46    24    47 1   
    47    25    26 1   
    48    26    27 1   
    49    26    48 1   
    50    27    49 1   
@<TRIPOS>SUBSTRUCTURE
     1 Y4H         1 TEMP              0 ****  ****    0 ROOT
