@<TRIPOS>MOLECULE
Y4I
   62    65     1     0     0
SMALL
abcg2


@<TRIPOS>ATOM
      1 O11          6.4190    -0.2470    19.1620 os         1 Y4I      -0.477000
      2 O13          2.2430    -4.2280    17.3840 o          1 Y4I      -0.516000
      3 C20          3.2000    -3.6190    17.8480 c          1 Y4I       0.586200
      4 N19          3.3570    -3.5130    19.2300 ns         1 Y4I      -0.466500
      5 C18          4.3570    -2.8710    19.9200 c          1 Y4I       0.623000
      6 O12          4.3960    -2.8440    21.1390 o          1 Y4I      -0.554000
      7 C21          4.2400    -2.9630    17.0940 cc         1 Y4I      -0.368200
      8 C22          5.2330    -2.3260    17.7410 cd         1 Y4I       0.009600
      9 N17          5.3130    -2.2670    19.1110 n          1 Y4I      -0.320000
     10 C12          6.4050    -1.5390    19.7410 c6         1 Y4I       0.337700
     11 C13          7.7400    -2.2520    19.5460 c6         1 Y4I       0.172800
     12 N14          8.7750    -1.4070    20.1360 n3         1 Y4I      -0.834700
     13 C15          8.8110    -0.0720    19.5280 c6         1 Y4I       0.165800
     14 C16          7.4510     0.5850    19.7050 c6         1 Y4I       0.175300
     15 C23          7.3430     1.9120    18.9790 c3         1 Y4I       0.161600
     16 O15          8.2830     2.8060    19.5690 oh         1 Y4I      -0.734000
     17 P           10.2080    -2.0340    20.6830 p5         1 Y4I       1.187100
     18 SP          11.6570    -2.3350    19.4250 s          1 Y4I      -0.579000
     19 OP1          9.6880    -3.3310    21.4510 oh         1 Y4I      -0.516400
     20 O5          10.6750    -1.0010    21.8000 os         1 Y4I      -0.379400
     21 C5           9.7940    -0.5950    22.8790 c3         1 Y4I      -0.006400
     22 C4          10.5960     0.1760    23.9000 c5         1 Y4I       0.166300
     23 C3          11.4710     1.2960    23.3230 c5         1 Y4I       0.150300
     24 O3          11.4210     2.3820    24.2500 oh         1 Y4I      -0.721000
     25 C2          12.8530     0.6530    23.2670 c5         1 Y4I      -0.154400
     26 C1          12.8310    -0.2700    24.4810 c5         1 Y4I       0.341700
     27 O4          11.4810    -0.7090    24.6090 os         1 Y4I      -0.466000
     28 N1          13.6850    -1.4500    24.3720 n          1 Y4I      -0.316000
     29 C6          13.3930    -2.4100    23.4300 cc         1 Y4I       0.001600
     30 C7          14.1030    -3.5430    23.2660 cd         1 Y4I      -0.257400
     31 C5M         13.7600    -4.5800    22.2440 c3         1 Y4I      -0.017900
     32 C8          15.2490    -3.7570    24.1310 c          1 Y4I       0.586200
     33 O6          15.9930    -4.7320    24.0960 o          1 Y4I      -0.527000
     34 N3          15.4780    -2.7420    25.0540 ns         1 Y4I      -0.465500
     35 C9          14.7560    -1.5850    25.2360 c          1 Y4I       0.623000
     36 O2          15.0570    -0.7600    26.0860 o          1 Y4I      -0.560000
     37 H2           4.2020    -2.9890    16.0160 ha         1 Y4I       0.228000
     38 H22          6.0210    -1.8090    17.2150 h4         1 Y4I       0.216000
     39 H12          6.1780    -1.4770    20.8050 h2         1 Y4I       0.100700
     40 H131         7.7080    -3.2130    20.0530 h1         1 Y4I       0.073200
     41 H132         7.9260    -2.4160    18.4790 h1         1 Y4I       0.073200
     42 H151         9.5720     0.5360    20.0120 h1         1 Y4I       0.076700
     43 H152         9.0520    -0.1440    18.4610 h1         1 Y4I       0.076700
     44 H16          7.2610     0.7330    20.7750 h1         1 Y4I       0.062700
     45 H231         6.3200     2.2870    19.0800 h1         1 Y4I       0.046200
     46 H232         7.5550     1.7630    17.9150 h1         1 Y4I       0.046200
     47 HO15         8.2750     3.6290    19.0670 ho         1 Y4I       0.520000
     48 HOP1        10.3100    -4.0730    21.4090 ho         1 Y4I       0.300000
     49 H5'2         9.0040     0.0390    22.4770 h1         1 Y4I       0.065200
     50 H5'1         9.3520    -1.4780    23.3380 h1         1 Y4I       0.065200
     51 H4           9.8870     0.6030    24.6140 h1         1 Y4I       0.099700
     52 H3          11.1210     1.6170    22.3400 h1         1 Y4I       0.064700
     53 HO3         12.0140     3.0760    23.9330 ho         1 Y4I       0.515000
     54 H2'2        12.9580     0.0740    22.3500 hc         1 Y4I       0.083700
     55 H2'1        13.6580     1.3840    23.3190 hc         1 Y4I       0.083700
     56 H1          13.1460     0.2460    25.3840 h2         1 Y4I       0.112700
     57 H6          12.5260    -2.1950    22.8250 h4         1 Y4I       0.204000
     58 H5M3        12.8940    -4.2710    21.6610 hc         1 Y4I       0.047700
     59 H5M1        14.5960    -4.7460    21.5610 hc         1 Y4I       0.047700
     60 H5M2        13.5400    -5.5390    22.7210 hc         1 Y4I       0.047700
     61 H7          16.2720    -2.8590    25.6710 hn         1 Y4I       0.345500
     62 H8           2.6530    -3.9590    19.8050 hn         1 Y4I       0.347500
@<TRIPOS>BOND
     1     1    10 1   
     2     1    14 1   
     3     2     3 2   
     4     3     4 1   
     5     3     7 1   
     6     4     5 1   
     7     4    62 1   
     8     5     6 2   
     9     5     9 1   
    10     7     8 2   
    11     7    37 1   
    12     8     9 1   
    13     8    38 1   
    14     9    10 1   
    15    10    11 1   
    16    10    39 1   
    17    11    12 1   
    18    11    40 1   
    19    11    41 1   
    20    12    13 1   
    21    12    17 1   
    22    13    14 1   
    23    13    42 1   
    24    13    43 1   
    25    14    15 1   
    26    14    44 1   
    27    15    16 1   
    28    15    45 1   
    29    15    46 1   
    30    16    47 1   
    31    17    18 2   
    32    17    19 1   
    33    17    20 1   
    34    19    48 1   
    35    20    21 1   
    36    21    22 1   
    37    21    49 1   
    38    21    50 1   
    39    22    23 1   
    40    22    27 1   
    41    22    51 1   
    42    23    24 1   
    43    23    25 1   
    44    23    52 1   
    45    24    53 1   
    46    25    26 1   
    47    25    54 1   
    48    25    55 1   
    49    26    27 1   
    50    26    28 1   
    51    26    56 1   
    52    28    29 1   
    53    28    35 1   
    54    29    30 2   
    55    29    57 1   
    56    30    31 1   
    57    30    32 1   
    58    31    58 1   
    59    31    59 1   
    60    31    60 1   
    61    32    33 2   
    62    32    34 1   
    63    34    35 1   
    64    34    61 1   
    65    35    36 2   
@<TRIPOS>SUBSTRUCTURE
     1 Y4I         1 TEMP              0 ****  ****    0 ROOT
