@<TRIPOS>MOLECULE
Y4I
   62    65     1     0     0
SMALL
No Charge or Current Charge


@<TRIPOS>ATOM
      1 O11          6.2960    -0.6150    18.8070 os         1 Y4I      -0.477000
      2 O13          3.4320    -5.8220    17.2050 o          1 Y4I      -0.516000
      3 C20          4.0230    -4.9010    17.7400 c          1 Y4I       0.586200
      4 N19          3.6520    -4.4070    18.9480 ns         1 Y4I      -0.466500
      5 C18          4.2210    -3.3900    19.6510 c          1 Y4I       0.623000
      6 O12          3.7790    -3.0660    20.7410 o          1 Y4I      -0.554000
      7 C21          5.1820    -4.2250    17.1670 cc         1 Y4I      -0.368200
      8 C22          5.8110    -3.1850    17.8130 cd         1 Y4I       0.009600
      9 N17          5.3300    -2.7610    19.0540 n          1 Y4I      -0.320000
     10 C12          6.0020    -1.6520    19.7710 c6         1 Y4I       0.337700
     11 C13          7.3180    -2.1200    20.4680 c6         1 Y4I       0.172800
     12 N14          8.0960    -0.9870    21.0630 n3         1 Y4I      -0.834700
     13 C15          8.2600     0.1490    20.0970 c6         1 Y4I       0.165800
     14 C16          6.9180     0.5470    19.4070 c6         1 Y4I       0.175300
     15 C23          7.1140     1.6060    18.2800 c3         1 Y4I       0.161600
     16 O15          7.6940     2.8360    18.7610 oh         1 Y4I      -0.734000
     17 P            9.3400    -1.3630    22.1260 p5         1 Y4I       1.187100
     18 SP           9.9060    -3.2210    22.0270 s          1 Y4I      -0.579000
     19 OP1          8.6710    -0.9760    23.5240 oh         1 Y4I      -0.516400
     20 O5          10.4410    -0.1870    21.9040 os         1 Y4I      -0.379400
     21 C5          10.6260     1.0080    22.7060 c3         1 Y4I      -0.006400
     22 C4          11.1040     0.7080    24.1690 c5         1 Y4I       0.166300
     23 C3          12.3930     1.5040    24.5930 c5         1 Y4I       0.150300
     24 O3          12.4720     1.7130    26.0100 oh         1 Y4I      -0.721000
     25 C2          13.4870     0.5220    24.1170 c5         1 Y4I      -0.154400
     26 C1          12.8510    -0.7980    24.6230 c5         1 Y4I       0.341700
     27 O4          11.4460    -0.6990    24.3200 os         1 Y4I      -0.466000
     28 N1          13.4660    -1.9510    23.9170 n          1 Y4I      -0.316000
     29 C6          13.3590    -2.0730    22.5280 cc         1 Y4I       0.001600
     30 C7          13.9570    -3.1260    21.8720 cd         1 Y4I      -0.257400
     31 C5M         13.8690    -3.3360    20.3770 c3         1 Y4I      -0.017900
     32 C8          14.7270    -4.1360    22.6410 c          1 Y4I       0.586200
     33 O6          15.2900    -5.1020    22.1510 o          1 Y4I      -0.527000
     34 N3          14.7640    -3.9010    23.9790 ns         1 Y4I      -0.465500
     35 C9          14.1950    -2.8830    24.6760 c          1 Y4I       0.623000
     36 O2          14.3340    -2.8090    25.8850 o          1 Y4I      -0.560000
     37 H2           5.5130    -4.5910    16.2010 ha         1 Y4I       0.228000
     38 H22          6.6760    -2.6430    17.4340 h4         1 Y4I       0.216000
     39 H12          5.3230    -1.2460    20.5360 h2         1 Y4I       0.100700
     40 H131         7.0430    -2.8480    21.2450 h1         1 Y4I       0.073200
     41 H132         7.9340    -2.6580    19.7320 h1         1 Y4I       0.073200
     42 H151         8.6450     1.0420    20.6100 h1         1 Y4I       0.076700
     43 H152         8.9960    -0.1130    19.3220 h1         1 Y4I       0.076700
     44 H16          6.2330     0.9640    20.1600 h1         1 Y4I       0.062700
     45 H231         6.1320     1.8030    17.8280 h1         1 Y4I       0.046200
     46 H232         7.7510     1.1640    17.5020 h1         1 Y4I       0.046200
     47 HO15         7.7410     3.4540    17.9920 ho         1 Y4I       0.520000
     48 HOP1         9.4190    -1.0800    24.1390 ho         1 Y4I       0.300000
     49 H5'2        11.3610     1.6590    22.2160 h1         1 Y4I       0.065200
     50 H5'1         9.6890     1.5790    22.7580 h1         1 Y4I       0.065200
     51 H4          10.2750     0.9460    24.8500 h1         1 Y4I       0.099700
     52 H3          12.4580     2.4680    24.0670 h1         1 Y4I       0.064700
     53 HO3         13.1930     2.3690    26.1690 ho         1 Y4I       0.515000
     54 H2'2        13.6100     0.5600    23.0300 hc         1 Y4I       0.083700
     55 H2'1        14.4670     0.7130    24.5670 hc         1 Y4I       0.083700
     56 H1          12.9900    -0.9090    25.7060 h2         1 Y4I       0.112700
     57 H6          12.7630    -1.2970    22.0600 h4         1 Y4I       0.204000
     58 H5M3        13.2800    -2.5450    19.8950 hc         1 Y4I       0.047700
     59 H5M1        14.8640    -3.3340    19.9170 hc         1 Y4I       0.047700
     60 H5M2        13.3900    -4.2940    20.1400 hc         1 Y4I       0.047700
     61 H7          15.2830    -4.5670    24.5270 hn         1 Y4I       0.345500
     62 H8           2.8580    -4.8490    19.3820 hn         1 Y4I       0.347500
@<TRIPOS>BOND
     1     1    10 1   
     2     1    14 1   
     3     2     3 2   
     4     3     4 1   
     5     3     7 1   
     6     4     5 1   
     7     4    62 1   
     8     5     6 2   
     9     5     9 1   
    10     7     8 2   
    11     7    37 1   
    12     8     9 1   
    13     8    38 1   
    14     9    10 1   
    15    10    11 1   
    16    10    39 1   
    17    11    12 1   
    18    11    40 1   
    19    11    41 1   
    20    12    13 1   
    21    12    17 1   
    22    13    14 1   
    23    13    42 1   
    24    13    43 1   
    25    14    15 1   
    26    14    44 1   
    27    15    16 1   
    28    15    45 1   
    29    15    46 1   
    30    16    47 1   
    31    17    18 2   
    32    17    19 1   
    33    17    20 1   
    34    19    48 1   
    35    20    21 1   
    36    21    22 1   
    37    21    49 1   
    38    21    50 1   
    39    22    23 1   
    40    22    27 1   
    41    22    51 1   
    42    23    24 1   
    43    23    25 1   
    44    23    52 1   
    45    24    53 1   
    46    25    26 1   
    47    25    54 1   
    48    25    55 1   
    49    26    27 1   
    50    26    28 1   
    51    26    56 1   
    52    28    29 1   
    53    28    35 1   
    54    29    30 2   
    55    29    57 1   
    56    30    31 1   
    57    30    32 1   
    58    31    58 1   
    59    31    59 1   
    60    31    60 1   
    61    32    33 2   
    62    32    34 1   
    63    34    35 1   
    64    34    61 1   
    65    35    36 2   
@<TRIPOS>SUBSTRUCTURE
     1 Y4I         1 TEMP              0 ****  ****    0 ROOT
