@<TRIPOS>MOLECULE
Y4K
   42    43     1     0     0
SMALL
abcg2


@<TRIPOS>ATOM
      1 N1          -0.3030   -30.2820   -12.7900 nu         1 Y4K      -0.735000
      2 C2          -2.3680   -31.3290   -12.2790 c3         1 Y4K       0.129800
      3 C3           0.0610   -29.8610   -14.0110 ca         1 Y4K       0.473000
      4 C4           1.3300   -30.1480   -14.6010 ca         1 Y4K      -0.310200
      5 C5           1.6620   -29.6690   -15.8720 ca         1 Y4K       0.108000
      6 C7          -0.4970   -28.6150   -16.0290 ca         1 Y4K       0.050000
      7 C8          -0.8360   -29.0780   -14.7900 ca         1 Y4K      -0.205000
      8 C9          -3.7090   -30.5080   -10.3040 ca         1 Y4K      -0.100300
      9 C10         -4.2640   -29.2570   -10.0340 ca         1 Y4K      -0.107000
     10 C11         -4.2210   -28.7150    -8.7520 ca         1 Y4K      -0.107500
     11 C12         -3.6150   -29.4180    -7.7170 ca         1 Y4K      -0.104000
     12 O3           2.5940   -28.5490   -18.3960 o          1 Y4K      -0.535000
     13 O2           0.6500   -26.9800   -18.3200 o          1 Y4K      -0.535000
     14 N3           0.3950   -29.2280   -19.2990 n8         1 Y4K      -0.995100
     15 C6           0.7660   -28.9080   -16.5800 ca         1 Y4K      -0.409500
     16 N2           2.3240   -30.9430   -13.9380 no         1 Y4K       0.688200
     17 O1           3.3790   -31.1930   -14.5180 o          1 Y4K      -0.419000
     18 O            2.0940   -31.3640   -12.7940 o          1 Y4K      -0.419000
     19 N           -1.6020   -30.0760   -12.3120 n7         1 Y4K      -0.575200
     20 C1          -3.7660   -31.0880   -11.7040 c3         1 Y4K      -0.015400
     21 C           -4.5820   -32.3840   -11.7520 c3         1 Y4K      -0.084100
     22 C14         -3.1020   -31.2050    -9.2550 ca         1 Y4K      -0.107000
     23 C13         -3.0540   -30.6660    -7.9740 ca         1 Y4K      -0.107500
     24 H1           0.3270   -30.8940   -12.2870 hn         1 Y4K       0.535000
     25 H2          -2.4550   -31.6880   -13.3060 h1         1 Y4K       0.049200
     26 H3          -1.8480   -32.1020   -11.6980 h1         1 Y4K       0.049200
     27 H4           2.6320   -29.9050   -16.2790 ha         1 Y4K       0.172000
     28 H5          -1.2040   -28.0150   -16.5870 ha         1 Y4K       0.131000
     29 H6          -1.8000   -28.8540   -14.3620 ha         1 Y4K       0.151000
     30 H7          -4.7340   -28.7030   -10.8380 ha         1 Y4K       0.113000
     31 H8          -4.6600   -27.7420    -8.5650 ha         1 Y4K       0.117000
     32 H9          -3.5790   -28.9990    -6.7200 ha         1 Y4K       0.117000
     33 H10          0.6730   -30.2040   -19.2760 hn         1 Y4K       0.473500
     34 H11         -0.6140   -29.1210   -19.2520 hn         1 Y4K       0.473500
     35 H12         -1.5230   -29.6910   -11.3760 hn         1 Y4K       0.443000
     36 H13         -4.2550   -30.3490   -12.3430 hc         1 Y4K       0.064700
     37 H14         -5.5940   -32.2120   -11.3800 hc         1 Y4K       0.042033
     38 H15         -4.6500   -32.7570   -12.7760 hc         1 Y4K       0.042033
     39 H16         -4.1230   -33.1610   -11.1370 hc         1 Y4K       0.042033
     40 H17         -2.6600   -32.1770    -9.4400 ha         1 Y4K       0.113000
     41 H18         -2.5780   -31.2220    -7.1750 ha         1 Y4K       0.117000
     42 S            1.1860   -28.3140   -18.1880 sy         1 Y4K       1.176600
@<TRIPOS>BOND
     1     1     3 1   
     2     1    19 1   
     3     1    24 1   
     4     2    19 1   
     5     2    20 1   
     6     2    25 1   
     7     2    26 1   
     8     3     4 ar  
     9     3     7 ar  
    10     4     5 ar  
    11     4    16 1   
    12     5    15 ar  
    13     5    27 1   
    14     6     7 ar  
    15     6    15 ar  
    16     6    28 1   
    17     7    29 1   
    18     8     9 ar  
    19     8    20 1   
    20     8    22 ar  
    21     9    10 ar  
    22     9    30 1   
    23    10    11 ar  
    24    10    31 1   
    25    11    23 ar  
    26    11    32 1   
    27    12    42 2   
    28    13    42 2   
    29    14    33 1   
    30    14    34 1   
    31    14    42 1   
    32    15    42 1   
    33    16    17 1   
    34    16    18 1   
    35    19    35 1   
    36    20    21 1   
    37    20    36 1   
    38    21    37 1   
    39    21    38 1   
    40    21    39 1   
    41    22    23 ar  
    42    22    40 1   
    43    23    41 1   
@<TRIPOS>SUBSTRUCTURE
     1 Y4K         1 TEMP              0 ****  ****    0 ROOT
