@<TRIPOS>MOLECULE
Y4K
   42    43     1     0     0
SMALL
No Charge or Current Charge


@<TRIPOS>ATOM
      1 N1          -0.0610   -30.0790   -12.6700 nu         1 Y4K      -0.735000
      2 C2          -2.2480   -31.1640   -12.2470 c3         1 Y4K       0.129800
      3 C3           0.2020   -29.7310   -14.0140 ca         1 Y4K       0.473000
      4 C4           1.4320   -30.0560   -14.6280 ca         1 Y4K      -0.310200
      5 C5           1.6710   -29.6750   -15.9660 ca         1 Y4K       0.108000
      6 C7          -0.5360   -28.6530   -16.0830 ca         1 Y4K       0.050000
      7 C8          -0.7670   -29.0270   -14.7530 ca         1 Y4K      -0.205000
      8 C9          -3.7080   -30.4860   -10.2560 ca         1 Y4K      -0.100300
      9 C10         -4.2210   -29.2290    -9.8750 ca         1 Y4K      -0.107000
     10 C11         -4.2430   -28.8480    -8.5220 ca         1 Y4K      -0.107500
     11 C12         -3.7530   -29.7220    -7.5370 ca         1 Y4K      -0.104000
     12 O3           2.4470   -28.4040   -18.6160 o          1 Y4K      -0.535000
     13 O2           0.0490   -27.4930   -18.8060 o          1 Y4K      -0.535000
     14 N3           0.5360   -29.8570   -19.1630 n8         1 Y4K      -0.995100
     15 C6           0.6860   -28.9810   -16.6910 ca         1 Y4K      -0.409500
     16 N2           2.5090   -30.7740   -13.9020 no         1 Y4K       0.688200
     17 O1           3.6770   -30.5580   -14.2460 o          1 Y4K      -0.419000
     18 O            2.1940   -31.6180   -13.0540 o          1 Y4K      -0.419000
     19 N           -1.3940   -29.9670   -12.0720 n7         1 Y4K      -0.575200
     20 C1          -3.6850   -30.8910   -11.7350 c3         1 Y4K      -0.015400
     21 C           -4.6140   -32.1000   -11.9920 c3         1 Y4K      -0.084100
     22 C14         -3.2190   -31.3570    -9.2590 ca         1 Y4K      -0.107000
     23 C13         -3.2420   -30.9760    -7.9070 ca         1 Y4K      -0.107500
     24 H1           0.6250   -30.7430   -12.2730 hn         1 Y4K       0.535000
     25 H2          -2.2960   -31.4420   -13.3090 h1         1 Y4K       0.049200
     26 H3          -1.8250   -32.0180   -11.7010 h1         1 Y4K       0.049200
     27 H4           2.6190   -29.9250   -16.4470 ha         1 Y4K       0.172000
     28 H5          -1.3070   -28.1070   -16.6260 ha         1 Y4K       0.131000
     29 H6          -1.7110   -28.7580   -14.2940 ha         1 Y4K       0.151000
     30 H7          -4.6030   -28.5420   -10.6270 ha         1 Y4K       0.113000
     31 H8          -4.6400   -27.8760    -8.2370 ha         1 Y4K       0.117000
     32 H9          -3.7710   -29.4270    -6.4900 ha         1 Y4K       0.117000
     33 H10         -0.0790   -30.2880   -18.4780 hn         1 Y4K       0.473500
     34 H11         -0.1000   -29.4620   -19.8510 hn         1 Y4K       0.473500
     35 H12         -1.4400   -29.5790   -11.1100 hn         1 Y4K       0.443000
     36 H13         -4.0810   -30.0640   -12.3370 hc         1 Y4K       0.064700
     37 H14         -5.6330   -31.8800   -11.6510 hc         1 Y4K       0.042033
     38 H15         -4.6570   -32.3330   -13.0630 hc         1 Y4K       0.042033
     39 H16         -4.2590   -32.9910   -11.4620 hc         1 Y4K       0.042033
     40 H17         -2.8200   -32.3320    -9.5300 ha         1 Y4K       0.113000
     41 H18         -2.8630   -31.6540    -7.1450 ha         1 Y4K       0.117000
     42 S            1.0080   -28.5080   -18.3790 sy         1 Y4K       1.176600
@<TRIPOS>BOND
     1     1     3 1   
     2     1    19 1   
     3     1    24 1   
     4     2    19 1   
     5     2    20 1   
     6     2    25 1   
     7     2    26 1   
     8     3     4 ar  
     9     3     7 ar  
    10     4     5 ar  
    11     4    16 1   
    12     5    15 ar  
    13     5    27 1   
    14     6     7 ar  
    15     6    15 ar  
    16     6    28 1   
    17     7    29 1   
    18     8     9 ar  
    19     8    20 1   
    20     8    22 ar  
    21     9    10 ar  
    22     9    30 1   
    23    10    11 ar  
    24    10    31 1   
    25    11    23 ar  
    26    11    32 1   
    27    12    42 2   
    28    13    42 2   
    29    14    33 1   
    30    14    34 1   
    31    14    42 1   
    32    15    42 1   
    33    16    17 1   
    34    16    18 1   
    35    19    35 1   
    36    20    21 1   
    37    20    36 1   
    38    21    37 1   
    39    21    38 1   
    40    21    39 1   
    41    22    23 ar  
    42    22    40 1   
    43    23    41 1   
@<TRIPOS>SUBSTRUCTURE
     1 Y4K         1 TEMP              0 ****  ****    0 ROOT
