@<TRIPOS>MOLECULE
Y4L
   25    25     1     0     0
SMALL
No Charge or Current Charge


@<TRIPOS>ATOM
      1 Cl          -4.9780     0.7940     1.1490 cl         1 Y4L      -0.193000
      2 C5          -3.2330     0.5850     1.0810 ca         1 Y4L       0.110000
      3 C4          -2.4110     1.2350     2.0160 ca         1 Y4L      -0.087000
      4 C3          -1.0150     1.0650     1.9610 ca         1 Y4L      -0.118000
      5 C6          -2.6620    -0.2360     0.0960 ca         1 Y4L      -0.087000
      6 C7          -1.2650    -0.4030     0.0440 ca         1 Y4L      -0.118000
      7 C2          -0.4320     0.2580     0.9680 ca         1 Y4L       0.246000
      8 N1           0.9490     0.0930     0.9540 nu         1 Y4L      -0.893100
      9 S            1.9620     0.2860    -0.3360 s6         1 Y4L       1.264200
     10 O            1.1560     0.5010    -1.5370 o          1 Y4L      -0.534000
     11 O1           2.9380     1.2670     0.1330 o          1 Y4L      -0.534000
     12 N            2.7560    -1.2230    -0.4590 n3         1 Y4L      -0.751500
     13 C1           3.7390    -1.2890    -1.5580 c3         1 Y4L       0.177100
     14 C            1.8790    -2.4120    -0.3960 c3         1 Y4L       0.177100
     15 H4          -2.8550     1.8650     2.7830 ha         1 Y4L       0.135500
     16 H6          -3.3000    -0.7460    -0.6220 ha         1 Y4L       0.135500
     17 H3          -0.3870     1.5680     2.6920 ha         1 Y4L       0.134500
     18 H7          -0.8360    -1.0520    -0.7140 ha         1 Y4L       0.134500
     19 H1           1.4530     0.5990     1.6670 hn         1 Y4L       0.487000
     20 H11C         4.3020    -2.2310    -1.5220 h1         1 Y4L       0.052867
     21 H12C         3.2420    -1.2260    -2.5360 h1         1 Y4L       0.052867
     22 H13C         4.4640    -0.4670    -1.4880 h1         1 Y4L       0.052867
     23 HC1          1.2940    -2.4340     0.5320 h1         1 Y4L       0.052867
     24 HC2          1.1810    -2.4310    -1.2440 h1         1 Y4L       0.052867
     25 HC3          2.4730    -3.3350    -0.4260 h1         1 Y4L       0.052867
@<TRIPOS>BOND
     1     1     2 1   
     2     2     3 ar  
     3     2     5 ar  
     4     3     4 ar  
     5     3    15 1   
     6     4     7 ar  
     7     4    17 1   
     8     5     6 ar  
     9     5    16 1   
    10     6     7 ar  
    11     6    18 1   
    12     7     8 1   
    13     8     9 1   
    14     8    19 1   
    15     9    10 2   
    16     9    11 2   
    17     9    12 1   
    18    12    13 1   
    19    12    14 1   
    20    13    20 1   
    21    13    21 1   
    22    13    22 1   
    23    14    23 1   
    24    14    24 1   
    25    14    25 1   
@<TRIPOS>SUBSTRUCTURE
     1 Y4L         1 TEMP              0 ****  ****    0 ROOT
