@<TRIPOS>MOLECULE
Y4L
   25    25     1     0     0
SMALL
abcg2


@<TRIPOS>ATOM
      1 CL          -4.4220    -0.6300    -0.1920 cl         1 Y4L      -0.193000
      2 C5          -2.7840    -0.1100     0.0250 ca         1 Y4L       0.110000
      3 C4          -2.1350    -0.3730     1.2210 ca         1 Y4L      -0.087000
      4 C3          -0.8210     0.0330     1.3810 ca         1 Y4L      -0.118000
      5 C6          -2.1430     0.5740    -0.9970 ca         1 Y4L      -0.087000
      6 C7          -0.8360     0.9980    -0.8210 ca         1 Y4L      -0.118000
      7 C2          -0.1630     0.7170     0.3640 ca         1 Y4L       0.246000
      8 N1           1.1680     1.1570     0.5540 nu         1 Y4L      -0.893100
      9 S            2.4110     0.5020    -0.3540 s6         1 Y4L       1.264200
     10 O            2.1100     0.7590    -1.7460 o          1 Y4L      -0.534000
     11 O1           3.6090     1.0470     0.2480 o          1 Y4L      -0.534000
     12 N            2.4470    -1.1310    -0.1610 n3         1 Y4L      -0.751500
     13 C1           1.5380    -1.9580    -0.9480 c3         1 Y4L       0.177100
     14 C            2.6930    -1.6180     1.1910 c3         1 Y4L       0.177100
     15 H4          -2.6400    -0.9000     2.0190 ha         1 Y4L       0.135500
     16 H6          -2.6590     0.7930    -1.9210 ha         1 Y4L       0.135500
     17 H3          -0.3100    -0.1830     2.3110 ha         1 Y4L       0.134500
     18 H7          -0.3510     1.5570    -1.6070 ha         1 Y4L       0.134500
     19 H1           1.4380     1.2600     1.5270 hn         1 Y4L       0.487000
     20 H11C         1.9590    -2.9620    -0.9850 h1         1 Y4L       0.052867
     21 H12C         0.5380    -2.0220    -0.5130 h1         1 Y4L       0.052867
     22 H13C         1.4620    -1.5910    -1.9660 h1         1 Y4L       0.052867
     23 HC1          3.4840    -1.0500     1.6720 h1         1 Y4L       0.052867
     24 HC2          1.7980    -1.5890     1.8180 h1         1 Y4L       0.052867
     25 HC3          3.0240    -2.6520     1.1190 h1         1 Y4L       0.052867
@<TRIPOS>BOND
     1     1     2 1   
     2     2     3 ar  
     3     2     5 ar  
     4     3     4 ar  
     5     3    15 1   
     6     4     7 ar  
     7     4    17 1   
     8     5     6 ar  
     9     5    16 1   
    10     6     7 ar  
    11     6    18 1   
    12     7     8 1   
    13     8     9 1   
    14     8    19 1   
    15     9    10 2   
    16     9    11 2   
    17     9    12 1   
    18    12    13 1   
    19    12    14 1   
    20    13    20 1   
    21    13    21 1   
    22    13    22 1   
    23    14    23 1   
    24    14    24 1   
    25    14    25 1   
@<TRIPOS>SUBSTRUCTURE
     1 Y4L         1 TEMP              0 ****  ****    0 ROOT
