@<TRIPOS>MOLECULE
Y4O
   69    72     1     0     0
SMALL
No Charge or Current Charge


@<TRIPOS>ATOM
      1 C1         -19.0150   -30.9450    16.9740 c3         1 Y4O      -0.048800
      2 C2         -17.7080   -31.5990    16.5240 ca         1 Y4O      -0.086300
      3 N3          -8.3900   -43.2350    18.5880 n3         1 Y4O      -0.717600
      4 C4         -15.8640   -31.8490    14.9560 ca         1 Y4O      -0.090000
      5 N5         -18.0470   -28.5570    12.9690 nb         1 Y4O      -0.242000
      6 C6         -15.9370   -33.2420    16.9590 ca         1 Y4O      -0.035000
      7 C7         -17.1400   -32.6110    17.3240 ca         1 Y4O      -0.144000
      8 C10        -12.9580   -36.8130    19.0280 ca         1 Y4O      -0.081000
      9 C11        -12.7920   -37.7720    20.0530 ca         1 Y4O      -0.023000
     10 C15        -10.4380   -38.6480    19.4900 c          1 Y4O       0.604100
     11 C16         -9.4710   -39.7340    19.9810 c3         1 Y4O      -0.159400
     12 C17         -9.3710   -40.9080    18.9750 c3         1 Y4O      -0.073400
     13 C18         -8.3990   -42.0180    19.4390 c3         1 Y4O       0.164800
     14 C19         -7.9520   -42.9900    17.1920 c3         1 Y4O       0.148100
     15 C20         -7.6340   -44.3440    19.2130 c3         1 Y4O       0.148100
     16 C21        -17.1190   -29.2540    13.6440 ca         1 Y4O       0.387900
     17 C22        -17.5910   -27.6120    12.1280 ca         1 Y4O       0.150900
     18 C23        -16.2170   -27.3660    11.9800 ca         1 Y4O      -0.270000
     19 C24        -15.3070   -28.1370    12.7460 cp         1 Y4O       0.226500
     20 C25        -13.8160   -27.9690    12.6800 cp         1 Y4O      -0.212500
     21 C29        -12.9290   -28.9210    13.2510 ca         1 Y4O      -0.027000
     22 C3         -17.0570   -31.1990    15.3310 ca         1 Y4O       0.284000
     23 C5         -15.3050   -32.8570    15.7600 ca         1 Y4O      -0.110000
     24 N1         -15.4390   -34.2550    17.8260 ns         1 Y4O      -0.144000
     25 C8         -14.2630   -34.9980    17.8280 c          1 Y4O       0.615700
     26 O1         -13.3760   -34.8520    16.9930 o          1 Y4O      -0.574100
     27 C9         -14.1270   -36.0180    18.9490 ca         1 Y4O      -0.124600
     28 C12        -13.8140   -37.9380    21.0030 ca         1 Y4O      -0.148000
     29 C13        -14.9790   -37.1590    20.9400 ca         1 Y4O      -0.088000
     30 C14        -15.1390   -36.2050    19.9240 ca         1 Y4O      -0.119000
     31 O2         -10.1300   -37.8830    18.5840 o          1 Y4O      -0.571100
     32 N4         -17.6270   -30.2000    14.5250 nu         1 Y4O      -0.938900
     33 N6         -15.7870   -29.0810    13.5800 nb         1 Y4O      -0.240000
     34 C26        -13.2210   -26.8450    12.0500 ca         1 Y4O       0.356900
     35 N7         -11.8860   -26.6410    11.9630 nb         1 Y4O      -0.671000
     36 C27        -11.0680   -27.5650    12.5110 ca         1 Y4O       0.345900
     37 C28        -11.5450   -28.7110    13.1610 ca         1 Y4O      -0.172000
     38 H1         -19.8230   -31.1480    16.2620 hc         1 Y4O       0.044367
     39 H2         -19.3410   -31.3180    17.9520 hc         1 Y4O       0.044367
     40 H3         -18.9040   -29.8580    17.0630 hc         1 Y4O       0.044367
     41 H4         -15.3720   -31.5920    14.0240 ha         1 Y4O       0.134000
     42 H6         -17.6390   -32.9100    18.2430 ha         1 Y4O       0.109000
     43 H8         -12.1850   -36.6760    18.2770 ha         1 Y4O       0.170000
     44 H31         -8.4750   -39.2890    20.0940 hc         1 Y4O       0.064200
     45 H13         -9.8110   -40.1310    20.9450 hc         1 Y4O       0.064200
     46 H14        -10.3670   -41.3450    18.8290 hc         1 Y4O       0.059700
     47 H32         -9.0440   -40.5150    18.0050 hc         1 Y4O       0.059700
     48 H16         -7.3860   -41.5960    19.5010 h1         1 Y4O       0.029700
     49 H15         -8.6880   -42.3010    20.4610 h1         1 Y4O       0.029700
     50 H18         -7.9580   -43.9240    16.6150 h1         1 Y4O       0.032533
     51 H17         -8.6220   -42.2860    16.6810 h1         1 Y4O       0.032533
     52 H19         -6.9340   -42.5790    17.1670 h1         1 Y4O       0.032533
     53 H20         -7.7100   -45.2570    18.6080 h1         1 Y4O       0.032533
     54 H21         -6.5700   -44.0850    19.3140 h1         1 Y4O       0.032533
     55 H22         -8.0290   -44.5690    20.2130 h1         1 Y4O       0.032533
     56 H24        -18.3340   -27.0480    11.5670 h4         1 Y4O       0.024100
     57 H25        -15.8830   -26.6050    11.2830 ha         1 Y4O       0.136000
     58 H29        -13.3010   -29.8120    13.7540 ha         1 Y4O       0.141000
     59 H5         -14.3890   -33.3310    15.4220 ha         1 Y4O       0.149000
     60 H7         -16.0650   -34.4770    18.5880 hn         1 Y4O       0.152000
     61 H9         -13.7070   -38.6730    21.7980 ha         1 Y4O       0.113000
     62 H10        -15.7630   -37.2960    21.6830 ha         1 Y4O       0.118000
     63 H11        -16.0570   -35.6230    19.9100 ha         1 Y4O       0.116000
     64 H12        -11.7210   -39.2920    20.9160 hn         1 Y4O       0.150000
     65 H23        -18.6250   -30.0710    14.6860 hn         1 Y4O       0.513000
     66 H26        -13.8320   -26.0630    11.6040 h4         1 Y4O       0.020100
     67 H27         -9.9970   -27.3790    12.4270 h4         1 Y4O       0.021100
     68 H28        -10.8460   -29.4250    13.5870 ha         1 Y4O       0.128000
     69 N2         -11.6420   -38.6010    20.1820 ns         1 Y4O      -0.149000
@<TRIPOS>BOND
     1     1     2 1   
     2     1    38 1   
     3     1    39 1   
     4     1    40 1   
     5     2     7 ar  
     6     2    22 ar  
     7     3    13 1   
     8     3    14 1   
     9     3    15 1   
    10     4    22 ar  
    11     4    23 ar  
    12     4    41 1   
    13     5    16 ar  
    14     5    17 ar  
    15     6     7 ar  
    16     6    23 ar  
    17     6    24 1   
    18     7    42 1   
    19     8     9 ar  
    20     8    27 ar  
    21     8    43 1   
    22     9    28 ar  
    23     9    69 1   
    24    10    11 1   
    25    10    31 2   
    26    10    69 1   
    27    11    12 1   
    28    11    44 1   
    29    11    45 1   
    30    12    13 1   
    31    12    46 1   
    32    12    47 1   
    33    13    48 1   
    34    13    49 1   
    35    14    50 1   
    36    14    51 1   
    37    14    52 1   
    38    15    53 1   
    39    15    54 1   
    40    15    55 1   
    41    16    32 1   
    42    16    33 ar  
    43    17    18 ar  
    44    17    56 1   
    45    18    19 ar  
    46    18    57 1   
    47    19    20 1   
    48    19    33 ar  
    49    20    21 ar  
    50    20    34 ar  
    51    21    37 ar  
    52    21    58 1   
    53    22    32 1   
    54    23    59 1   
    55    24    25 1   
    56    24    60 1   
    57    25    26 2   
    58    25    27 1   
    59    27    30 ar  
    60    28    29 ar  
    61    28    61 1   
    62    29    30 ar  
    63    29    62 1   
    64    30    63 1   
    65    32    65 1   
    66    34    35 ar  
    67    34    66 1   
    68    35    36 ar  
    69    36    37 ar  
    70    36    67 1   
    71    37    68 1   
    72    64    69 1   
@<TRIPOS>SUBSTRUCTURE
     1 Y4O         1 TEMP              0 ****  ****    0 ROOT
