@<TRIPOS>MOLECULE
Y4O
   69    72     1     0     0
SMALL
abcg2


@<TRIPOS>ATOM
      1 C1         -18.8620   -32.4770    15.7840 c3         1 Y4O      -0.048800
      2 C2         -17.3620   -32.5390    15.7060 ca         1 Y4O      -0.086300
      3 N3          -9.6530   -43.6420    19.2640 n3         1 Y4O      -0.717600
      4 C4         -15.2650   -31.9090    14.6750 ca         1 Y4O      -0.090000
      5 N5         -17.9730   -29.4750    12.2620 nb         1 Y4O      -0.242000
      6 C6         -15.2470   -33.3760    16.5810 ca         1 Y4O      -0.035000
      7 C7         -16.6420   -33.3030    16.6130 ca         1 Y4O      -0.144000
      8 C10        -12.0010   -36.3560    18.7490 ca         1 Y4O      -0.081000
      9 C11        -11.6050   -37.0720    19.8780 ca         1 Y4O      -0.023000
     10 C15        -10.0120   -38.6780    18.7980 c          1 Y4O       0.604100
     11 C16         -9.1180   -39.8400    19.1740 c3         1 Y4O      -0.159400
     12 C17         -9.8390   -41.1740    18.9390 c3         1 Y4O      -0.073400
     13 C18         -8.9640   -42.3560    19.3410 c3         1 Y4O       0.164800
     14 C19         -9.9420   -44.0360    17.8910 c3         1 Y4O       0.148100
     15 C20         -8.8840   -44.6810    19.9380 c3         1 Y4O       0.148100
     16 C21        -17.0850   -29.8970    13.1870 ca         1 Y4O       0.387900
     17 C22        -17.6950   -28.3150    11.6800 ca         1 Y4O       0.150900
     18 C23        -16.5710   -27.5600    11.9860 ca         1 Y4O      -0.270000
     19 C24        -15.7260   -28.0700    12.9710 cp         1 Y4O       0.226500
     20 C25        -14.5040   -27.3650    13.4110 cp         1 Y4O      -0.212500
     21 C29        -13.4610   -28.0560    14.0310 ca         1 Y4O      -0.027000
     22 C3         -16.6560   -31.8270    14.7180 ca         1 Y4O       0.284000
     23 C5         -14.5570   -32.6660    15.5970 ca         1 Y4O      -0.110000
     24 N1         -14.6190   -34.1440    17.5790 ns         1 Y4O      -0.144000
     25 C8         -13.3450   -34.6230    17.6090 c          1 Y4O       0.615700
     26 O1         -12.5410   -34.4770    16.6910 o          1 Y4O      -0.574100
     27 C9         -12.9800   -35.3680    18.8580 ca         1 Y4O      -0.124600
     28 C12        -12.1830   -36.7730    21.1180 ca         1 Y4O      -0.148000
     29 C13        -13.1420   -35.7790    21.2230 ca         1 Y4O      -0.088000
     30 C14        -13.5510   -35.0740    20.0960 ca         1 Y4O      -0.119000
     31 O2         -10.1780   -38.3370    17.6310 o          1 Y4O      -0.571100
     32 N4         -17.3910   -31.0910    13.7720 nu         1 Y4O      -0.938900
     33 N6         -15.9860   -29.2400    13.5660 nb         1 Y4O      -0.240000
     34 C26        -14.3500   -25.9870    13.2370 ca         1 Y4O       0.356900
     35 N7         -13.2680   -25.3080    13.6180 nb         1 Y4O      -0.671000
     36 C27        -12.2750   -25.9900    14.1980 ca         1 Y4O       0.345900
     37 C28        -12.3300   -27.3600    14.4260 ca         1 Y4O      -0.172000
     38 H1         -19.3300   -32.9150    14.8960 hc         1 Y4O       0.044367
     39 H2         -19.2240   -33.0240    16.6530 hc         1 Y4O       0.044367
     40 H3         -19.2110   -31.4440    15.8540 hc         1 Y4O       0.044367
     41 H4         -14.7260   -31.3700    13.9110 ha         1 Y4O       0.134000
     42 H6         -17.1800   -33.8510    17.3790 ha         1 Y4O       0.109000
     43 H8         -11.5580   -36.5650    17.7910 ha         1 Y4O       0.170000
     44 H31         -8.2250   -39.7840    18.5490 hc         1 Y4O       0.064200
     45 H13         -8.8050   -39.7670    20.2180 hc         1 Y4O       0.064200
     46 H14        -10.7620   -41.2020    19.5260 hc         1 Y4O       0.059700
     47 H32        -10.1210   -41.2390    17.8870 hc         1 Y4O       0.059700
     48 H16         -8.0460   -42.3610    18.7260 h1         1 Y4O       0.029700
     49 H15         -8.6480   -42.2160    20.3780 h1         1 Y4O       0.029700
     50 H18        -10.4620   -44.9950    17.8900 h1         1 Y4O       0.032533
     51 H17        -10.5850   -43.3020    17.4070 h1         1 Y4O       0.032533
     52 H19         -9.0250   -44.1420    17.2860 h1         1 Y4O       0.032533
     53 H20         -9.4380   -45.6210    19.9180 h1         1 Y4O       0.032533
     54 H21         -7.9020   -44.8540    19.4640 h1         1 Y4O       0.032533
     55 H22         -8.7140   -44.4010    20.9790 h1         1 Y4O       0.032533
     56 H24        -18.3990   -27.9710    10.9290 h4         1 Y4O       0.024100
     57 H25        -16.3680   -26.6360    11.4680 ha         1 Y4O       0.136000
     58 H29        -13.5440   -29.1220    14.1890 ha         1 Y4O       0.141000
     59 H5         -13.4830   -32.7120    15.5460 ha         1 Y4O       0.149000
     60 H7         -15.2260   -34.4440    18.3260 hn         1 Y4O       0.152000
     61 H9         -11.8710   -37.3240    21.9970 ha         1 Y4O       0.113000
     62 H10        -13.5700   -35.5490    22.1890 ha         1 Y4O       0.118000
     63 H11        -14.2830   -34.2840    20.2000 ha         1 Y4O       0.116000
     64 H12        -10.4210   -38.4790    20.7630 hn         1 Y4O       0.150000
     65 H23        -18.3040   -31.4400    13.5230 hn         1 Y4O       0.513000
     66 H26        -15.1440   -25.4010    12.7870 h4         1 Y4O       0.020100
     67 H27        -11.4030   -25.4180    14.4940 h4         1 Y4O       0.021100
     68 H28        -11.5010   -27.8660    14.9030 ha         1 Y4O       0.128000
     69 N2         -10.6410   -38.0910    19.8570 ns         1 Y4O      -0.149000
@<TRIPOS>BOND
     1     1     2 1   
     2     1    38 1   
     3     1    39 1   
     4     1    40 1   
     5     2     7 ar  
     6     2    22 ar  
     7     3    13 1   
     8     3    14 1   
     9     3    15 1   
    10     4    22 ar  
    11     4    23 ar  
    12     4    41 1   
    13     5    16 ar  
    14     5    17 ar  
    15     6     7 ar  
    16     6    23 ar  
    17     6    24 1   
    18     7    42 1   
    19     8     9 ar  
    20     8    27 ar  
    21     8    43 1   
    22     9    28 ar  
    23     9    69 1   
    24    10    11 1   
    25    10    31 2   
    26    10    69 1   
    27    11    12 1   
    28    11    44 1   
    29    11    45 1   
    30    12    13 1   
    31    12    46 1   
    32    12    47 1   
    33    13    48 1   
    34    13    49 1   
    35    14    50 1   
    36    14    51 1   
    37    14    52 1   
    38    15    53 1   
    39    15    54 1   
    40    15    55 1   
    41    16    32 1   
    42    16    33 ar  
    43    17    18 ar  
    44    17    56 1   
    45    18    19 ar  
    46    18    57 1   
    47    19    20 1   
    48    19    33 ar  
    49    20    21 ar  
    50    20    34 ar  
    51    21    37 ar  
    52    21    58 1   
    53    22    32 1   
    54    23    59 1   
    55    24    25 1   
    56    24    60 1   
    57    25    26 2   
    58    25    27 1   
    59    27    30 ar  
    60    28    29 ar  
    61    28    61 1   
    62    29    30 ar  
    63    29    62 1   
    64    30    63 1   
    65    32    65 1   
    66    34    35 ar  
    67    34    66 1   
    68    35    36 ar  
    69    36    37 ar  
    70    36    67 1   
    71    37    68 1   
    72    64    69 1   
@<TRIPOS>SUBSTRUCTURE
     1 Y4O         1 TEMP              0 ****  ****    0 ROOT
