@<TRIPOS>MOLECULE
Y4Q
   37    38     1     0     0
SMALL
abcg2


@<TRIPOS>ATOM
      1 C1          29.6510    -0.7280   -30.6370 c2         1 Y4Q       0.519300
      2 C2          28.6390    -0.7310   -28.5810 ce         1 Y4Q       0.913200
      3 C3          26.0820    -0.8310   -26.3510 c2         1 Y4Q      -0.029000
      4 C4          25.3830    -1.1390   -25.2600 c2         1 Y4Q      -0.293200
      5 C5          23.9840    -0.6600   -25.0220 c3         1 Y4Q       0.016100
      6 C6          23.8420     0.2970   -23.8500 ca         1 Y4Q      -0.008300
      7 C7          24.9550     0.9930   -23.3750 ca         1 Y4Q      -0.118000
      8 C8          24.8770     1.8610   -22.2930 ca         1 Y4Q      -0.066000
      9 C9          23.6730     2.0470   -21.6230 ca         1 Y4Q      -0.119000
     10 O1          20.5870    -0.4340   -22.7060 o          1 Y4Q      -0.398000
     11 O2          30.5980     2.0750   -28.4930 o          1 Y4Q      -0.529100
     12 O           21.2140    -0.3260   -24.7680 o          1 Y4Q      -0.398000
     13 C11         22.6440     0.5180   -23.1560 ca         1 Y4Q      -0.164200
     14 C10         22.5500     1.3600   -22.0520 ca         1 Y4Q      -0.054000
     15 N2          27.4280    -1.1590   -26.5560 nu         1 Y4Q      -0.476000
     16 N1          27.7740    -1.4620   -27.8630 nu         1 Y4Q      -0.655200
     17 N           28.7790    -1.2710   -29.8680 ne         1 Y4Q      -0.749000
     18 N4          29.2080     0.3370   -28.0780 nf         1 Y4Q      -0.738100
     19 C12         30.1020     1.0130   -28.8580 c          1 Y4Q       0.714500
     20 C13         30.5020     0.4160   -30.1920 c6         1 Y4Q      -0.331700
     21 C           29.8420    -1.2410   -32.0200 c3         1 Y4Q      -0.153400
     22 H1          25.6590    -0.2310   -27.1490 h4         1 Y4Q       0.203000
     23 H2          25.8430    -1.7440   -24.4830 ha         1 Y4Q       0.176000
     24 H3          23.6040    -0.1690   -25.9210 hc         1 Y4Q       0.075200
     25 H4          23.3290    -1.5180   -24.8530 hc         1 Y4Q       0.075200
     26 H5          25.9040     0.8430   -23.8700 ha         1 Y4Q       0.137000
     27 H6          25.7650     2.3890   -21.9700 ha         1 Y4Q       0.126000
     28 H7          23.6060     2.7190   -20.7790 ha         1 Y4Q       0.129000
     29 H8          21.5980     1.4820   -21.5580 ha         1 Y4Q       0.147000
     30 H9          27.8100    -1.8340   -25.9040 hn         1 Y4Q       0.459000
     31 H10         27.3400    -2.2530   -28.3240 hn         1 Y4Q       0.512000
     32 H11         31.5370     0.0610   -30.1130 hc         1 Y4Q       0.102200
     33 H12         30.5200     1.1960   -30.9550 hc         1 Y4Q       0.102200
     34 H13         29.2110    -2.1070   -32.2080 hc         1 Y4Q       0.067367
     35 H14         29.6050    -0.4500   -32.7380 hc         1 Y4Q       0.067367
     36 H15         30.8920    -1.5030   -32.1770 hc         1 Y4Q       0.067367
     37 N3          21.3990    -0.1310   -23.5730 no         1 Y4Q       0.669200
@<TRIPOS>BOND
     1     1    17 2   
     2     1    20 1   
     3     1    21 1   
     4     2    16 1   
     5     2    17 1   
     6     2    18 2   
     7     3     4 2   
     8     3    15 1   
     9     3    22 1   
    10     4     5 1   
    11     4    23 1   
    12     5     6 1   
    13     5    24 1   
    14     5    25 1   
    15     6     7 ar  
    16     6    13 ar  
    17     7     8 ar  
    18     7    26 1   
    19     8     9 ar  
    20     8    27 1   
    21     9    14 ar  
    22     9    28 1   
    23    10    37 1   
    24    11    19 2   
    25    12    37 1   
    26    13    14 ar  
    27    13    37 1   
    28    14    29 1   
    29    15    16 1   
    30    15    30 1   
    31    16    31 1   
    32    18    19 1   
    33    19    20 1   
    34    20    32 1   
    35    20    33 1   
    36    21    34 1   
    37    21    35 1   
    38    21    36 1   
@<TRIPOS>SUBSTRUCTURE
     1 Y4Q         1 TEMP              0 ****  ****    0 ROOT
