@<TRIPOS>MOLECULE
Y4Q
   37    38     1     0     0
SMALL
No Charge or Current Charge


@<TRIPOS>ATOM
      1 C1          29.6100    -0.5210   -30.6340 c2         1 Y4Q       0.519300
      2 C2          28.8760    -0.9310   -28.5440 ce         1 Y4Q       0.913200
      3 C3          26.0920    -0.9440   -26.3800 c2         1 Y4Q      -0.029000
      4 C4          25.4570    -1.0610   -25.2060 c2         1 Y4Q      -0.293200
      5 C5          23.9970    -0.7200   -24.9610 c3         1 Y4Q       0.016100
      6 C6          23.7770     0.3430   -23.8730 ca         1 Y4Q      -0.008300
      7 C7          24.7560     1.3450   -23.6820 ca         1 Y4Q      -0.118000
      8 C8          24.6130     2.3170   -22.6790 ca         1 Y4Q      -0.066000
      9 C9          23.4840     2.3060   -21.8490 ca         1 Y4Q      -0.119000
     10 O1          20.9910    -1.0940   -22.1940 o          1 Y4Q      -0.398000
     11 O2          30.7460     1.6990   -28.4320 o          1 Y4Q      -0.529100
     12 O           21.0470    -0.7900   -24.3540 o          1 Y4Q      -0.398000
     13 C11         22.6180     0.3550   -23.0450 ca         1 Y4Q      -0.164200
     14 C10         22.4900     1.3320   -22.0310 ca         1 Y4Q      -0.054000
     15 N2          27.4380    -1.2680   -26.5340 nu         1 Y4Q      -0.476000
     16 N1          27.9260    -1.6650   -27.8570 nu         1 Y4Q      -0.655200
     17 N           28.6520    -0.9990   -29.9000 ne         1 Y4Q      -0.749000
     18 N4          29.8110    -0.3060   -27.9220 nf         1 Y4Q      -0.738100
     19 C12         30.5860     0.5240   -28.7120 c          1 Y4Q       0.714500
     20 C13         30.9200    -0.0630   -30.0560 c6         1 Y4Q      -0.331700
     21 C           29.5080    -0.5720   -32.1360 c3         1 Y4Q      -0.153400
     22 H1          25.5910    -0.5730   -27.2790 h4         1 Y4Q       0.203000
     23 H2          25.9830    -1.4270   -24.3220 ha         1 Y4Q       0.176000
     24 H3          23.5250    -0.3810   -25.8920 hc         1 Y4Q       0.075200
     25 H4          23.4880    -1.6520   -24.6910 hc         1 Y4Q       0.075200
     26 H5          25.6410     1.3750   -24.3130 ha         1 Y4Q       0.137000
     27 H6          25.3800     3.0770   -22.5440 ha         1 Y4Q       0.126000
     28 H7          23.3730     3.0570   -21.0700 ha         1 Y4Q       0.129000
     29 H8          21.6100     1.3470   -21.3890 ha         1 Y4Q       0.147000
     30 H9          27.8320    -1.8210   -25.7570 hn         1 Y4Q       0.459000
     31 H10         27.2090    -1.9260   -28.5360 hn         1 Y4Q       0.512000
     32 H11         31.5230    -0.9680   -29.9120 hc         1 Y4Q       0.102200
     33 H12         31.4280     0.6740   -30.6880 hc         1 Y4Q       0.102200
     34 H13         28.5220    -0.9260   -32.4600 hc         1 Y4Q       0.067367
     35 H14         29.6660     0.4210   -32.5710 hc         1 Y4Q       0.067367
     36 H15         30.2610    -1.2500   -32.5530 hc         1 Y4Q       0.067367
     37 N3          21.5100    -0.6300   -23.2170 no         1 Y4Q       0.669200
@<TRIPOS>BOND
     1     1    17 2   
     2     1    20 1   
     3     1    21 1   
     4     2    16 1   
     5     2    17 1   
     6     2    18 2   
     7     3     4 2   
     8     3    15 1   
     9     3    22 1   
    10     4     5 1   
    11     4    23 1   
    12     5     6 1   
    13     5    24 1   
    14     5    25 1   
    15     6     7 ar  
    16     6    13 ar  
    17     7     8 ar  
    18     7    26 1   
    19     8     9 ar  
    20     8    27 1   
    21     9    14 ar  
    22     9    28 1   
    23    10    37 1   
    24    11    19 2   
    25    12    37 1   
    26    13    14 ar  
    27    13    37 1   
    28    14    29 1   
    29    15    16 1   
    30    15    30 1   
    31    16    31 1   
    32    18    19 1   
    33    19    20 1   
    34    20    32 1   
    35    20    33 1   
    36    21    34 1   
    37    21    35 1   
    38    21    36 1   
@<TRIPOS>SUBSTRUCTURE
     1 Y4Q         1 TEMP              0 ****  ****    0 ROOT
