@<TRIPOS>MOLECULE
Y4T
   38    39     1     0     0
SMALL
abcg2


@<TRIPOS>ATOM
      1 C1          16.9980   -36.1660    12.8120 c2         1 Y4T      -0.318000
      2 C2          16.0810   -35.6650    13.6330 c2         1 Y4T      -0.215200
      3 C7          12.1290   -37.8420    15.9350 ca         1 Y4T       0.139100
      4 C8          12.8990   -38.4920    14.9540 cp         1 Y4T      -0.052000
      5 C3          14.6260   -35.5010    13.2990 c3         1 Y4T       0.006100
      6 C4          13.7320   -36.3060    14.2190 ca         1 Y4T      -0.110300
      7 C5          12.9610   -35.6950    15.2040 ca         1 Y4T      -0.066000
      8 C6          12.1670   -36.4560    16.0530 ca         1 Y4T      -0.201000
      9 C9          12.8900   -39.9620    14.7720 cp         1 Y4T      -0.058000
     10 C10         12.9780   -40.8480    15.8500 ca         1 Y4T      -0.042000
     11 C11         13.0170   -42.2190    15.6410 ca         1 Y4T      -0.204000
     12 C12         12.9650   -42.7360    14.3480 ca         1 Y4T       0.139100
     13 C13         12.8720   -41.8780    13.2460 ca         1 Y4T      -0.109300
     14 C14         12.8410   -42.4170    11.8420 c3         1 Y4T       0.013100
     15 C15         14.1930   -42.7240    11.2480 c2         1 Y4T      -0.212200
     16 C16         15.3710   -42.5300    11.8290 c2         1 Y4T      -0.318000
     17 C17         12.8380   -40.5090    13.4860 ca         1 Y4T      -0.066000
     18 C18         13.6870   -37.6940    14.1200 ca         1 Y4T      -0.066000
     19 O2          13.0020   -44.0810    14.1070 oh         1 Y4T      -0.535100
     20 H1          16.7410   -36.4880    11.8090 ha         1 Y4T       0.162000
     21 H2          18.0340   -36.2690    13.1130 ha         1 Y4T       0.162000
     22 H3          10.8350   -38.0170    17.3420 ho         1 Y4T       0.460000
     23 H4          16.3700   -35.3580    14.6360 ha         1 Y4T       0.169000
     24 H5          14.4600   -35.7980    12.2600 hc         1 Y4T       0.051200
     25 H6          14.3520   -34.4450    13.3840 hc         1 Y4T       0.051200
     26 H7          12.9760   -34.6170    15.3110 ha         1 Y4T       0.113000
     27 H8          11.5580   -35.9740    16.8110 ha         1 Y4T       0.112000
     28 H9          13.0270   -40.4660    16.8600 ha         1 Y4T       0.122000
     29 H10         13.0940   -42.8980    16.4830 ha         1 Y4T       0.112000
     30 H11         12.3380   -41.6960    11.1910 hc         1 Y4T       0.055700
     31 H12         12.2360   -43.3280    11.8010 hc         1 Y4T       0.055700
     32 H13         14.1600   -43.1380    10.2430 ha         1 Y4T       0.163000
     33 H14         16.2940   -42.7780    11.3180 ha         1 Y4T       0.162000
     34 H15         15.4540   -42.1190    12.8280 ha         1 Y4T       0.162000
     35 H16         12.7570   -39.8450    12.6340 ha         1 Y4T       0.115000
     36 H17         14.2990   -38.1850    13.3730 ha         1 Y4T       0.120000
     37 H18         13.0500   -44.5610    14.9440 ho         1 Y4T       0.460000
     38 O1          11.3240   -38.5970    16.7430 oh         1 Y4T      -0.535100
@<TRIPOS>BOND
     1     1     2 2   
     2     1    20 1   
     3     1    21 1   
     4     2     5 1   
     5     2    23 1   
     6     3     4 ar  
     7     3     8 ar  
     8     3    38 1   
     9     4     9 1   
    10     4    18 ar  
    11     5     6 1   
    12     5    24 1   
    13     5    25 1   
    14     6     7 ar  
    15     6    18 ar  
    16     7     8 ar  
    17     7    26 1   
    18     8    27 1   
    19     9    10 ar  
    20     9    17 ar  
    21    10    11 ar  
    22    10    28 1   
    23    11    12 ar  
    24    11    29 1   
    25    12    13 ar  
    26    12    19 1   
    27    13    14 1   
    28    13    17 ar  
    29    14    15 1   
    30    14    30 1   
    31    14    31 1   
    32    15    16 2   
    33    15    32 1   
    34    16    33 1   
    35    16    34 1   
    36    17    35 1   
    37    18    36 1   
    38    19    37 1   
    39    22    38 1   
@<TRIPOS>SUBSTRUCTURE
     1 Y4T         1 TEMP              0 ****  ****    0 ROOT
