@<TRIPOS>MOLECULE
Y4T
   38    39     1     0     0
SMALL
No Charge or Current Charge


@<TRIPOS>ATOM
      1 C1          17.1770   -35.9740    12.9920 c2         1 Y4T      -0.318000
      2 C2          16.1300   -35.5720    13.7300 c2         1 Y4T      -0.215200
      3 C7          12.1060   -37.8620    15.8780 ca         1 Y4T       0.139100
      4 C8          12.9090   -38.5370    14.9150 cp         1 Y4T      -0.052000
      5 C3          14.6890   -35.5420    13.2660 c3         1 Y4T       0.006100
      6 C4          13.7790   -36.3500    14.1820 ca         1 Y4T      -0.110300
      7 C5          12.9840   -35.7080    15.1470 ca         1 Y4T      -0.066000
      8 C6          12.1500   -36.4620    15.9880 ca         1 Y4T      -0.201000
      9 C9          12.9040   -40.0270    14.7570 cp         1 Y4T      -0.058000
     10 C10         13.0170   -40.8900    15.8740 ca         1 Y4T      -0.042000
     11 C11         13.0340   -42.2850    15.7100 ca         1 Y4T      -0.204000
     12 C12         12.9410   -42.8480    14.4280 ca         1 Y4T       0.139100
     13 C13         12.8320   -42.0120    13.2930 ca         1 Y4T      -0.109300
     14 C14         12.7380   -42.5780    11.8740 c3         1 Y4T       0.013100
     15 C15         14.0680   -42.6520    11.1380 c2         1 Y4T      -0.212200
     16 C16         15.2790   -42.3330    11.6260 c2         1 Y4T      -0.318000
     17 C17         12.8180   -40.6140    13.4710 ca         1 Y4T      -0.066000
     18 C18         13.7370   -37.7520    14.0730 ca         1 Y4T      -0.066000
     19 O2          12.9650   -44.2070    14.3010 oh         1 Y4T      -0.535100
     20 H1          17.0580   -36.3230    11.9650 ha         1 Y4T       0.162000
     21 H2          18.1920   -35.9700    13.3920 ha         1 Y4T       0.162000
     22 H3          10.7850   -37.8950    17.2650 ho         1 Y4T       0.460000
     23 H4          16.2770   -35.2280    14.7570 ha         1 Y4T       0.169000
     24 H5          14.6110   -35.9250    12.2400 hc         1 Y4T       0.051200
     25 H6          14.3440   -34.5020    13.2170 hc         1 Y4T       0.051200
     26 H7          13.0100   -34.6240    15.2450 ha         1 Y4T       0.113000
     27 H8          11.5360   -35.9480    16.7230 ha         1 Y4T       0.112000
     28 H9          13.1050   -40.4710    16.8730 ha         1 Y4T       0.122000
     29 H10         13.1240   -42.9220    16.5860 ha         1 Y4T       0.112000
     30 H11         12.0460   -41.9590    11.2890 hc         1 Y4T       0.055700
     31 H12         12.2760   -43.5720    11.8870 hc         1 Y4T       0.055700
     32 H13         13.9750   -43.0070    10.1090 ha         1 Y4T       0.163000
     33 H14         16.1780   -42.4200    11.0150 ha         1 Y4T       0.162000
     34 H15         15.4210   -41.9760    12.6470 ha         1 Y4T       0.162000
     35 H16         12.7360   -39.9700    12.5990 ha         1 Y4T       0.115000
     36 H17         14.3650   -38.2440    13.3340 ha         1 Y4T       0.120000
     37 H18         13.0540   -44.5980    15.1960 ho         1 Y4T       0.460000
     38 O1          11.2540   -38.5440    16.7000 oh         1 Y4T      -0.535100
@<TRIPOS>BOND
     1     1     2 2   
     2     1    20 1   
     3     1    21 1   
     4     2     5 1   
     5     2    23 1   
     6     3     4 ar  
     7     3     8 ar  
     8     3    38 1   
     9     4     9 1   
    10     4    18 ar  
    11     5     6 1   
    12     5    24 1   
    13     5    25 1   
    14     6     7 ar  
    15     6    18 ar  
    16     7     8 ar  
    17     7    26 1   
    18     8    27 1   
    19     9    10 ar  
    20     9    17 ar  
    21    10    11 ar  
    22    10    28 1   
    23    11    12 ar  
    24    11    29 1   
    25    12    13 ar  
    26    12    19 1   
    27    13    14 1   
    28    13    17 ar  
    29    14    15 1   
    30    14    30 1   
    31    14    31 1   
    32    15    16 2   
    33    15    32 1   
    34    16    33 1   
    35    16    34 1   
    36    17    35 1   
    37    18    36 1   
    38    19    37 1   
    39    22    38 1   
@<TRIPOS>SUBSTRUCTURE
     1 Y4T         1 TEMP              0 ****  ****    0 ROOT
