@<TRIPOS>MOLECULE
Y4U
   28    29     1     0     0
SMALL
No Charge or Current Charge


@<TRIPOS>ATOM
      1 O1          24.9290    -7.9730   -24.1150 o          1 Y4U      -0.541100
      2 O2          23.7810    -2.7270   -25.5510 o          1 Y4U      -0.524000
      3 C1          21.2860    -1.9420   -22.6070 ca         1 Y4U      -0.007000
      4 C2          19.9080    -2.0110   -22.3360 ca         1 Y4U      -0.126000
      5 C3          19.0470    -2.6850   -23.2180 ca         1 Y4U      -0.046000
      6 C4          19.5640    -3.2930   -24.3750 ca         1 Y4U      -0.126000
      7 C5          20.9400    -3.2280   -24.6540 ca         1 Y4U      -0.007000
      8 C6          24.6490    -3.9000   -21.9340 cc         1 Y4U      -0.167000
      9 C7          25.0400    -5.1860   -21.6830 cd         1 Y4U      -0.124000
     10 C8          24.8550    -5.9680   -22.8470 cd         1 Y4U      -0.236600
     11 C9          25.1390    -7.4170   -23.0440 c          1 Y4U       0.603700
     12 C10         25.7060    -8.2040   -21.8640 c3         1 Y4U      -0.189100
     13 C11         24.3440    -5.1600   -23.8330 cc         1 Y4U      -0.076000
     14 O           24.1300    -1.2950   -23.4240 o          1 Y4U      -0.524000
     15 N           24.2190    -3.8840   -23.2690 na         1 Y4U      -0.111200
     16 C           21.8070    -2.5480   -23.7710 ca         1 Y4U      -0.312500
     17 H2          19.5080    -1.5430   -21.4400 ha         1 Y4U       0.124500
     18 H3          17.9810    -2.7370   -23.0050 ha         1 Y4U       0.121000
     19 H4          18.8970    -3.8160   -25.0560 ha         1 Y4U       0.124500
     20 H5          21.3230    -3.7090   -25.5530 ha         1 Y4U       0.137000
     21 H6          24.6400    -3.0220   -21.2980 h4         1 Y4U       0.167000
     22 H7          25.4290    -5.5400   -20.7320 ha         1 Y4U       0.137000
     23 H8          25.8820    -9.2580   -22.1030 hc         1 Y4U       0.060700
     24 H9          26.6190    -7.7090   -21.5140 hc         1 Y4U       0.060700
     25 H10         25.0340    -8.0890   -21.0070 hc         1 Y4U       0.060700
     26 H11         24.0660    -5.3810   -24.8590 h4         1 Y4U       0.181000
     27 S           23.5840    -2.4740   -24.1150 sy         1 Y4U       1.201700
     28 H1          21.9390    -1.4190   -21.9100 ha         1 Y4U       0.137000
@<TRIPOS>BOND
     1     1    11 2   
     2     2    27 2   
     3     3     4 ar  
     4     3    16 ar  
     5     3    28 1   
     6     4     5 ar  
     7     4    17 1   
     8     5     6 ar  
     9     5    18 1   
    10     6     7 ar  
    11     6    19 1   
    12     7    16 ar  
    13     7    20 1   
    14     8     9 2   
    15     8    15 1   
    16     8    21 1   
    17     9    10 1   
    18     9    22 1   
    19    10    11 1   
    20    10    13 2   
    21    11    12 1   
    22    12    23 1   
    23    12    24 1   
    24    12    25 1   
    25    13    15 1   
    26    13    26 1   
    27    14    27 2   
    28    15    27 1   
    29    16    27 1   
@<TRIPOS>SUBSTRUCTURE
     1 Y4U         1 TEMP              0 ****  ****    0 ROOT
