@<TRIPOS>MOLECULE
Y4U
   28    29     1     0     0
SMALL
abcg2


@<TRIPOS>ATOM
      1 O1          24.9450    -7.8760   -24.1860 o          1 Y4U      -0.541100
      2 O2          23.7930    -2.6920   -25.4980 o          1 Y4U      -0.524000
      3 C1          21.3480    -1.9210   -22.6260 ca         1 Y4U      -0.007000
      4 C2          19.9930    -2.0300   -22.3410 ca         1 Y4U      -0.126000
      5 C3          19.1680    -2.7980   -23.1570 ca         1 Y4U      -0.046000
      6 C4          19.6890    -3.4610   -24.2660 ca         1 Y4U      -0.126000
      7 C5          21.0410    -3.3600   -24.5660 ca         1 Y4U      -0.007000
      8 C6          24.5860    -3.8640   -21.9660 cc         1 Y4U      -0.167000
      9 C7          24.9470    -5.1450   -21.6850 cd         1 Y4U      -0.124000
     10 C8          24.8120    -5.9170   -22.8920 cd         1 Y4U      -0.236600
     11 C9          25.0880    -7.3460   -23.0900 c          1 Y4U       0.603700
     12 C10         25.5440    -8.1330   -21.8900 c3         1 Y4U      -0.189100
     13 C11         24.3660    -5.0640   -23.8780 cc         1 Y4U      -0.076000
     14 O           24.1270    -1.3270   -23.4280 o          1 Y4U      -0.524000
     15 N           24.2440    -3.8160   -23.3190 na         1 Y4U      -0.111200
     16 C           21.8530    -2.5880   -23.7380 ca         1 Y4U      -0.312500
     17 H2          19.5830    -1.5140   -21.4830 ha         1 Y4U       0.124500
     18 H3          18.1130    -2.8790   -22.9300 ha         1 Y4U       0.121000
     19 H4          19.0430    -4.0530   -24.9000 ha         1 Y4U       0.124500
     20 H5          21.4560    -3.8650   -25.4260 ha         1 Y4U       0.137000
     21 H6          24.5460    -2.9770   -21.3600 h4         1 Y4U       0.167000
     22 H7          25.2840    -5.5030   -20.7270 ha         1 Y4U       0.137000
     23 H8          25.7230    -9.1680   -22.1710 hc         1 Y4U       0.060700
     24 H9          26.4580    -7.6970   -21.4780 hc         1 Y4U       0.060700
     25 H10         24.7860    -8.0880   -21.1040 hc         1 Y4U       0.060700
     26 H11         24.1360    -5.2400   -24.9130 h4         1 Y4U       0.181000
     27 S           23.5720    -2.4690   -24.0970 sy         1 Y4U       1.201700
     28 H1          22.0000    -1.3250   -22.0040 ha         1 Y4U       0.137000
@<TRIPOS>BOND
     1     1    11 2   
     2     2    27 2   
     3     3     4 ar  
     4     3    16 ar  
     5     3    28 1   
     6     4     5 ar  
     7     4    17 1   
     8     5     6 ar  
     9     5    18 1   
    10     6     7 ar  
    11     6    19 1   
    12     7    16 ar  
    13     7    20 1   
    14     8     9 2   
    15     8    15 1   
    16     8    21 1   
    17     9    10 1   
    18     9    22 1   
    19    10    11 1   
    20    10    13 2   
    21    11    12 1   
    22    12    23 1   
    23    12    24 1   
    24    12    25 1   
    25    13    15 1   
    26    13    26 1   
    27    14    27 2   
    28    15    27 1   
    29    16    27 1   
@<TRIPOS>SUBSTRUCTURE
     1 Y4U         1 TEMP              0 ****  ****    0 ROOT
