@<TRIPOS>MOLECULE
Y4Y
   25    26     1     0     0
SMALL
No Charge or Current Charge


@<TRIPOS>ATOM
      1 C1         166.3400   127.1350   173.4010 c          1 Y4Y       0.492000
      2 C2         167.8460   127.6900   173.4180 c          1 Y4Y       0.490000
      3 C3         166.7440   126.4060   171.0470 ca         1 Y4Y       0.026600
      4 C4         168.0620   126.8930   171.0620 ca         1 Y4Y       0.076600
      5 C5         166.2360   125.7930   169.8920 ca         1 Y4Y      -0.074000
      6 C6         168.8750   126.7620   169.9270 ca         1 Y4Y      -0.125000
      7 C8         168.3840   126.1470   168.7560 ca         1 Y4Y       0.003700
      8 O1         165.5780   127.2130   174.3600 o          1 Y4Y      -0.470000
      9 O2         168.3550   128.2380   174.3900 o          1 Y4Y      -0.465000
     10 N2         168.5460   127.5070   172.2380 ns         1 Y4Y      -0.390100
     11 N1         165.9510   126.5490   172.2090 ns         1 Y4Y      -0.390100
     12 C7         167.0430   125.6650   168.7360 ca         1 Y4Y      -0.165200
     13 N3         166.4550   125.0170   167.5250 no         1 Y4Y       0.694200
     14 O3         165.7160   124.0400   167.7020 o          1 Y4Y      -0.395500
     15 O5         166.5850   125.5900   166.4360 o          1 Y4Y      -0.395500
     16 C          169.3400   125.9970   167.5670 c3         1 Y4Y       0.198100
     17 N17        169.2330   127.1250   166.6180 n8         1 Y4Y      -0.995200
     18 H1         165.2110   125.4250   169.8870 ha         1 Y4Y       0.154000
     19 H2         169.8960   127.1360   169.9510 ha         1 Y4Y       0.138000
     20 H3         169.4990   127.8500   172.2250 hn         1 Y4Y       0.339500
     21 H4         165.0030   126.1910   172.1770 hn         1 Y4Y       0.340500
     22 H5         169.1380   125.0560   167.0360 h1         1 Y4Y       0.046700
     23 H6         170.3750   125.9460   167.9340 h1         1 Y4Y       0.046700
     24 H7         169.8390   126.9400   165.8100 hn         1 Y4Y       0.409500
     25 H8         168.2860   127.1090   166.2160 hn         1 Y4Y       0.409500
@<TRIPOS>BOND
     1     1     2 1   
     2     1     8 2   
     3     1    11 1   
     4     2     9 2   
     5     2    10 1   
     6     3     4 ar  
     7     3     5 ar  
     8     3    11 1   
     9     4     6 ar  
    10     4    10 1   
    11     5    12 ar  
    12     5    18 1   
    13     6     7 ar  
    14     6    19 1   
    15     7    12 ar  
    16     7    16 1   
    17    10    20 1   
    18    11    21 1   
    19    12    13 1   
    20    13    14 1   
    21    13    15 1   
    22    16    17 1   
    23    16    22 1   
    24    16    23 1   
    25    17    24 1   
    26    17    25 1   
@<TRIPOS>SUBSTRUCTURE
     1 Y4Y         1 TEMP              0 ****  ****    0 ROOT
