@<TRIPOS>MOLECULE
Y4Y
   25    26     1     0     0
SMALL
abcg2


@<TRIPOS>ATOM
      1 C1         166.4010   127.1520   173.3080 c          1 Y4Y       0.492000
      2 C2         167.8340   127.6770   173.2930 c          1 Y4Y       0.490000
      3 C3         166.7370   126.3750   171.0320 ca         1 Y4Y       0.026600
      4 C4         168.0450   126.8640   171.0150 ca         1 Y4Y       0.076600
      5 C5         166.2360   125.7420   169.9120 ca         1 Y4Y      -0.074000
      6 C6         168.8220   126.7140   169.8770 ca         1 Y4Y      -0.125000
      7 C8         168.3420   126.1000   168.7290 ca         1 Y4Y       0.003700
      8 O1         165.7180   127.2920   174.2950 o          1 Y4Y      -0.470000
      9 O2         168.2900   128.2270   174.2660 o          1 Y4Y      -0.465000
     10 N2         168.5300   127.4860   172.1440 ns         1 Y4Y      -0.390100
     11 N1         165.9790   126.5430   172.1760 ns         1 Y4Y      -0.390100
     12 C7         167.0280   125.6320   168.7780 ca         1 Y4Y      -0.165200
     13 N3         166.4040   125.0030   167.6270 no         1 Y4Y       0.694200
     14 O3         165.6170   124.1080   167.8300 o          1 Y4Y      -0.395500
     15 O5         166.6850   125.4190   166.5260 o          1 Y4Y      -0.395500
     16 C          169.2800   125.9890   167.5510 c3         1 Y4Y       0.198100
     17 N17        169.2590   127.2200   166.7750 n8         1 Y4Y      -0.995200
     18 H1         165.2220   125.3650   169.9220 ha         1 Y4Y       0.154000
     19 H2         169.8410   127.0810   169.8900 ha         1 Y4Y       0.138000
     20 H3         169.4810   127.8370   172.1290 hn         1 Y4Y       0.339500
     21 H4         165.0290   126.1870   172.1770 hn         1 Y4Y       0.340500
     22 H5         169.0790   125.0810   166.9750 h1         1 Y4Y       0.046700
     23 H6         170.2860   125.8690   167.9550 h1         1 Y4Y       0.046700
     24 H7         169.9990   127.1830   166.0850 hn         1 Y4Y       0.409500
     25 H8         168.3930   127.2730   166.2540 hn         1 Y4Y       0.409500
@<TRIPOS>BOND
     1     1     2 1   
     2     1     8 2   
     3     1    11 1   
     4     2     9 2   
     5     2    10 1   
     6     3     4 ar  
     7     3     5 ar  
     8     3    11 1   
     9     4     6 ar  
    10     4    10 1   
    11     5    12 ar  
    12     5    18 1   
    13     6     7 ar  
    14     6    19 1   
    15     7    12 ar  
    16     7    16 1   
    17    10    20 1   
    18    11    21 1   
    19    12    13 1   
    20    13    14 1   
    21    13    15 1   
    22    16    17 1   
    23    16    22 1   
    24    16    23 1   
    25    17    24 1   
    26    17    25 1   
@<TRIPOS>SUBSTRUCTURE
     1 Y4Y         1 TEMP              0 ****  ****    0 ROOT
