@<TRIPOS>MOLECULE
Y50
   50    52     1     0     0
SMALL
abcg2


@<TRIPOS>ATOM
      1 C1          -7.6370     1.5580    -1.2980 c3         1 Y50       0.151900
      2 O2          -7.2640     0.4050    -0.5690 os         1 Y50      -0.348100
      3 C3          -5.9600     0.1930    -0.3160 ca         1 Y50       0.097100
      4 C4          -4.9260     1.0120    -0.7540 ca         1 Y50      -0.170000
      5 C5          -3.6070     0.7150    -0.4450 ca         1 Y50      -0.089000
      6 C6          -3.3000    -0.4090     0.3180 ca         1 Y50      -0.072800
      7 C7          -1.9440    -0.7780     0.6900 ce         1 Y50      -0.075200
      8 C8          -0.8150    -0.1110     0.4040 cf         1 Y50      -0.314200
      9 C9           0.5030    -0.6160     0.8320 c          1 Y50       0.593900
     10 O10          0.6370    -1.7160     1.3410 o          1 Y50      -0.517100
     11 C11          1.6600     0.2860     0.6130 ca         1 Y50      -0.237600
     12 C12          1.5080     1.6650     0.7470 ca         1 Y50      -0.005000
     13 C13          2.5630     2.5490     0.6160 ca         1 Y50      -0.252000
     14 C14          3.8320     2.0500     0.3270 ca         1 Y50       0.211100
     15 O15          4.9200     2.8140     0.1780 os         1 Y50      -0.337100
     16 C16          4.8060     4.2150     0.3540 c3         1 Y50       0.148900
     17 C17          4.0290     0.6700     0.1720 ca         1 Y50      -0.198800
     18 C18          5.3370     0.0810    -0.0770 ce         1 Y50      -0.110200
     19 C19          5.4220    -1.1910    -0.4600 c2         1 Y50      -0.273200
     20 C20          4.1730    -1.9950    -0.6900 c6         1 Y50       0.229200
     21 C21          4.3800    -3.4510    -0.3110 c3         1 Y50      -0.097100
     22 C22          3.7200    -1.8650    -2.1410 c3         1 Y50      -0.097100
     23 O23          3.1270    -1.5180     0.1800 os         1 Y50      -0.324100
     24 C24          2.9440    -0.1990     0.3130 ca         1 Y50       0.243100
     25 C25         -4.3510    -1.2240     0.7600 ca         1 Y50      -0.132000
     26 C26         -5.6780    -0.9520     0.4590 ca         1 Y50       0.255000
     27 N27         -6.7040    -1.7930     0.8480 nv         1 Y50      -1.055000
     28 H1          -7.3210     2.4760    -0.7960 h1         1 Y50       0.040700
     29 H2          -7.2260     1.5490    -2.3110 h1         1 Y50       0.040700
     30 H3          -8.7220     1.5470    -1.3590 h1         1 Y50       0.040700
     31 H4          -5.1370     1.8930    -1.3450 ha         1 Y50       0.116000
     32 H5          -2.8280     1.3740    -0.8070 ha         1 Y50       0.114000
     33 H6          -1.8560    -1.6930     1.2690 ha         1 Y50       0.190000
     34 H7          -0.8410     0.8090    -0.1660 ha         1 Y50       0.180000
     35 H8           0.5330     2.0720     0.9850 ha         1 Y50       0.116000
     36 H9           2.3840     3.6070     0.7410 ha         1 Y50       0.121000
     37 H10          4.1290     4.6610    -0.3770 h1         1 Y50       0.044033
     38 H11          4.4650     4.4700     1.3600 h1         1 Y50       0.044033
     39 H12          5.8020     4.6230     0.2050 h1         1 Y50       0.044033
     40 H13          6.2280     0.6770     0.0680 ha         1 Y50       0.195000
     41 H14          6.3780    -1.6640    -0.6480 ha         1 Y50       0.188000
     42 H15          4.6950    -3.5500     0.7280 hc         1 Y50       0.048533
     43 H16          3.4660    -4.0280    -0.4550 hc         1 Y50       0.048533
     44 H17          5.1550    -3.8880    -0.9400 hc         1 Y50       0.048533
     45 H18          4.5060    -2.2220    -2.8080 hc         1 Y50       0.048533
     46 H19          2.8240    -2.4600    -2.3270 hc         1 Y50       0.048533
     47 H20          3.5110    -0.8260    -2.4020 hc         1 Y50       0.048533
     48 H21         -4.1240    -2.0990     1.3600 ha         1 Y50       0.118000
     49 H22         -7.5970    -1.3500     0.9910 hn         1 Y50       0.447000
     50 H23         -6.4730    -2.3990     1.6190 hn         1 Y50       0.447000
@<TRIPOS>BOND
     1     1     2 1   
     2     1    28 1   
     3     1    29 1   
     4     1    30 1   
     5     2     3 1   
     6     3     4 ar  
     7     3    26 ar  
     8     4     5 ar  
     9     4    31 1   
    10     5     6 ar  
    11     5    32 1   
    12     6     7 1   
    13     6    25 ar  
    14     7     8 2   
    15     7    33 1   
    16     8     9 1   
    17     8    34 1   
    18     9    10 2   
    19     9    11 1   
    20    11    12 ar  
    21    11    24 ar  
    22    12    13 ar  
    23    12    35 1   
    24    13    14 ar  
    25    13    36 1   
    26    14    15 1   
    27    14    17 ar  
    28    15    16 1   
    29    16    37 1   
    30    16    38 1   
    31    16    39 1   
    32    17    18 1   
    33    17    24 ar  
    34    18    19 2   
    35    18    40 1   
    36    19    20 1   
    37    19    41 1   
    38    20    21 1   
    39    20    22 1   
    40    20    23 1   
    41    21    42 1   
    42    21    43 1   
    43    21    44 1   
    44    22    45 1   
    45    22    46 1   
    46    22    47 1   
    47    23    24 1   
    48    25    26 ar  
    49    25    48 1   
    50    26    27 1   
    51    27    49 1   
    52    27    50 1   
@<TRIPOS>SUBSTRUCTURE
     1 Y50         1 TEMP              0 ****  ****    0 ROOT
