@<TRIPOS>MOLECULE
Y50
   50    52     1     0     0
SMALL
No Charge or Current Charge


@<TRIPOS>ATOM
      1 C1          -7.6300     1.5020    -1.5780 c3         1 Y50       0.151900
      2 O2          -7.2620     0.3510    -0.7960 os         1 Y50      -0.348100
      3 C3          -5.9540     0.1080    -0.3960 ca         1 Y50       0.097100
      4 C4          -4.8990     0.9860    -0.7330 ca         1 Y50      -0.170000
      5 C5          -3.5870     0.7130    -0.3090 ca         1 Y50      -0.089000
      6 C6          -3.3030    -0.4370     0.4560 ca         1 Y50      -0.072800
      7 C7          -1.9190    -0.7500     0.9200 ce         1 Y50      -0.075200
      8 C8          -0.7590    -0.0650     0.6910 cf         1 Y50      -0.314200
      9 C9           0.5770    -0.4790     1.2030 c          1 Y50       0.593900
     10 O10          0.7030    -1.4940     1.8760 o          1 Y50      -0.517100
     11 C11          1.7480     0.4070     0.9030 ca         1 Y50      -0.237600
     12 C12          1.6430     1.7950     1.1130 ca         1 Y50      -0.005000
     13 C13          2.7340     2.6370     0.8460 ca         1 Y50      -0.252000
     14 C14          3.9470     2.1020     0.3670 ca         1 Y50       0.211100
     15 O15          5.0440     2.9000     0.1030 os         1 Y50      -0.337100
     16 C16          5.0260     4.3250     0.2970 c3         1 Y50       0.148900
     17 C17          4.0530     0.7150     0.1460 ca         1 Y50      -0.198800
     18 C18          5.3100     0.0890    -0.3390 ce         1 Y50      -0.110200
     19 C19          5.3070    -1.1950    -0.7390 c2         1 Y50      -0.273200
     20 C20          4.0220    -2.0050    -0.7560 c6         1 Y50       0.229200
     21 C21          4.2920    -3.4790    -0.3640 c3         1 Y50      -0.097100
     22 C22          3.3720    -1.9370    -2.1630 c3         1 Y50      -0.097100
     23 O23          3.0560    -1.4890     0.1880 os         1 Y50      -0.324100
     24 C24          2.9510    -0.1270     0.4060 ca         1 Y50       0.243100
     25 C25         -4.3570    -1.3100     0.7920 ca         1 Y50      -0.132000
     26 C26         -5.6740    -1.0510     0.3750 ca         1 Y50       0.255000
     27 N27         -6.6740    -1.9360     0.7280 nv         1 Y50      -1.055000
     28 H1          -7.3900     2.4310    -1.0430 h1         1 Y50       0.040700
     29 H2          -7.1040     1.5040    -2.5410 h1         1 Y50       0.040700
     30 H3          -8.7080     1.4960    -1.7800 h1         1 Y50       0.040700
     31 H4          -5.0750     1.8830    -1.3200 ha         1 Y50       0.116000
     32 H5          -2.7970     1.4060    -0.5820 ha         1 Y50       0.114000
     33 H6          -1.8560    -1.6590     1.5230 ha         1 Y50       0.190000
     34 H7          -0.7740     0.8410     0.0900 ha         1 Y50       0.180000
     35 H8           0.7190     2.2250     1.4980 ha         1 Y50       0.116000
     36 H9           2.6180     3.7010     1.0260 ha         1 Y50       0.121000
     37 H10          4.2580     4.7950    -0.3310 h1         1 Y50       0.044033
     38 H11          4.8240     4.5730     1.3470 h1         1 Y50       0.044033
     39 H12          5.9970     4.7580     0.0270 h1         1 Y50       0.044033
     40 H13          6.2180     0.6970    -0.3500 ha         1 Y50       0.195000
     41 H14          6.2150    -1.6830    -1.0980 ha         1 Y50       0.188000
     42 H15          4.7460    -3.5440     0.6310 hc         1 Y50       0.048533
     43 H16          3.3640    -4.0630    -0.3470 hc         1 Y50       0.048533
     44 H17          4.9750    -3.9610    -1.0740 hc         1 Y50       0.048533
     45 H18          4.0330    -2.3680    -2.9250 hc         1 Y50       0.048533
     46 H19          2.4250    -2.4890    -2.1920 hc         1 Y50       0.048533
     47 H20          3.1640    -0.9010    -2.4550 hc         1 Y50       0.048533
     48 H21         -4.1510    -2.2000     1.3810 ha         1 Y50       0.118000
     49 H22         -7.6410    -1.6830     0.5320 hn         1 Y50       0.447000
     50 H23         -6.5020    -2.6600     1.4220 hn         1 Y50       0.447000
@<TRIPOS>BOND
     1     1     2 1   
     2     1    28 1   
     3     1    29 1   
     4     1    30 1   
     5     2     3 1   
     6     3     4 ar  
     7     3    26 ar  
     8     4     5 ar  
     9     4    31 1   
    10     5     6 ar  
    11     5    32 1   
    12     6     7 1   
    13     6    25 ar  
    14     7     8 2   
    15     7    33 1   
    16     8     9 1   
    17     8    34 1   
    18     9    10 2   
    19     9    11 1   
    20    11    12 ar  
    21    11    24 ar  
    22    12    13 ar  
    23    12    35 1   
    24    13    14 ar  
    25    13    36 1   
    26    14    15 1   
    27    14    17 ar  
    28    15    16 1   
    29    16    37 1   
    30    16    38 1   
    31    16    39 1   
    32    17    18 1   
    33    17    24 ar  
    34    18    19 2   
    35    18    40 1   
    36    19    20 1   
    37    19    41 1   
    38    20    21 1   
    39    20    22 1   
    40    20    23 1   
    41    21    42 1   
    42    21    43 1   
    43    21    44 1   
    44    22    45 1   
    45    22    46 1   
    46    22    47 1   
    47    23    24 1   
    48    25    26 ar  
    49    25    48 1   
    50    26    27 1   
    51    27    49 1   
    52    27    50 1   
@<TRIPOS>SUBSTRUCTURE
     1 Y50         1 TEMP              0 ****  ****    0 ROOT
