@<TRIPOS>MOLECULE
Y52
   46    48     1     0     0
SMALL
abcg2


@<TRIPOS>ATOM
      1 C1           3.8880     3.5000     1.0140 c3         1 Y52       0.150900
      2 O2           3.7210     2.1580     0.5620 os         1 Y52      -0.430100
      3 C3           3.2240     1.9810    -0.6580 c          1 Y52       0.619300
      4 O4           2.9120     2.8990    -1.3860 o          1 Y52      -0.512000
      5 C5           3.1060     0.5570    -0.9850 ce         1 Y52      -0.244400
      6 C6           2.5740     0.2320    -2.1770 c2         1 Y52       0.094100
      7 O7           2.4680    -1.0240    -2.5650 os         1 Y52      -0.319100
      8 C8           1.7080    -1.2620    -3.7460 c3         1 Y52       0.141900
      9 C9           3.5680    -0.4900    -0.0430 ca         1 Y52       0.015200
     10 C10          4.8530    -1.0090    -0.1630 ca         1 Y52      -0.092000
     11 C11          5.3040    -2.0060     0.6900 ca         1 Y52      -0.101000
     12 C12          4.4640    -2.5000     1.6780 ca         1 Y52      -0.111000
     13 C13          3.1810    -1.9900     1.8060 ca         1 Y52      -0.094000
     14 C14          2.7260    -0.9830     0.9590 ca         1 Y52      -0.067300
     15 C15          1.3280    -0.4640     1.1220 c3         1 Y52       0.086900
     16 S16          0.2630    -1.3330    -0.0780 ss         1 Y52      -0.189200
     17 C17         -1.2990    -0.6450     0.2420 cc         1 Y52       0.403100
     18 S18         -1.5750     0.5500     1.4900 ss         1 Y52       0.003800
     19 C19         -3.2490     0.5680     1.0320 ca         1 Y52      -0.215000
     20 C20         -4.2980     1.3060     1.5520 ca         1 Y52      -0.032000
     21 C21         -5.5630     1.1450     1.0100 ca         1 Y52      -0.188000
     22 C22         -5.7780     0.2490    -0.0480 ca         1 Y52       0.144100
     23 O23         -6.9800     0.0480    -0.6220 os         1 Y52      -0.340100
     24 C24         -8.1030     0.7410    -0.1120 c3         1 Y52       0.148900
     25 C25         -4.7230    -0.4920    -0.5690 ca         1 Y52      -0.104000
     26 C26         -3.4540    -0.3330    -0.0270 ca         1 Y52       0.141400
     27 N27         -2.3270    -0.9990    -0.4470 nd         1 Y52      -0.530100
     28 H1           4.5810     4.0530     0.3800 h1         1 Y52       0.046700
     29 H2           2.9370     4.0320     1.0540 h1         1 Y52       0.046700
     30 H3           4.3000     3.4270     2.0170 h1         1 Y52       0.046700
     31 H4           2.2240     1.0020    -2.8620 h4         1 Y52       0.198000
     32 H5           1.8320    -2.3130    -3.9940 h1         1 Y52       0.051367
     33 H6           0.6510    -1.0560    -3.5760 h1         1 Y52       0.051367
     34 H7           2.0680    -0.6530    -4.5770 h1         1 Y52       0.051367
     35 H8           5.5080    -0.6230    -0.9340 ha         1 Y52       0.116000
     36 H9           6.3080    -2.3960     0.5830 ha         1 Y52       0.114000
     37 H10          4.8050    -3.2780     2.3490 ha         1 Y52       0.114000
     38 H11          2.5220    -2.3770     2.5740 ha         1 Y52       0.114000
     39 H12          0.9650    -0.6670     2.1300 h1         1 Y52       0.077700
     40 H13          1.2700     0.6090     0.9380 h1         1 Y52       0.077700
     41 H14         -4.1480     2.0010     2.3670 ha         1 Y52       0.122000
     42 H15         -6.3740     1.7270     1.4220 ha         1 Y52       0.119000
     43 H16         -8.9560     0.4210    -0.7050 h1         1 Y52       0.041700
     44 H17         -8.2910     0.4960     0.9370 h1         1 Y52       0.041700
     45 H18         -7.9950     1.8240    -0.2070 h1         1 Y52       0.041700
     46 H19         -4.8840    -1.1840    -1.3860 ha         1 Y52       0.146000
@<TRIPOS>BOND
     1     1     2 1   
     2     1    28 1   
     3     1    29 1   
     4     1    30 1   
     5     2     3 1   
     6     3     4 2   
     7     3     5 1   
     8     5     6 2   
     9     5     9 1   
    10     6     7 1   
    11     6    31 1   
    12     7     8 1   
    13     8    32 1   
    14     8    33 1   
    15     8    34 1   
    16     9    10 ar  
    17     9    14 ar  
    18    10    11 ar  
    19    10    35 1   
    20    11    12 ar  
    21    11    36 1   
    22    12    13 ar  
    23    12    37 1   
    24    13    14 ar  
    25    13    38 1   
    26    14    15 1   
    27    15    16 1   
    28    15    39 1   
    29    15    40 1   
    30    16    17 1   
    31    17    18 1   
    32    17    27 2   
    33    18    19 1   
    34    19    20 ar  
    35    19    26 ar  
    36    20    21 ar  
    37    20    41 1   
    38    21    22 ar  
    39    21    42 1   
    40    22    23 1   
    41    22    25 ar  
    42    23    24 1   
    43    24    43 1   
    44    24    44 1   
    45    24    45 1   
    46    25    26 ar  
    47    25    46 1   
    48    26    27 1   
@<TRIPOS>SUBSTRUCTURE
     1 Y52         1 TEMP              0 ****  ****    0 ROOT
