@<TRIPOS>MOLECULE
Y52
   46    48     1     0     0
SMALL
No Charge or Current Charge


@<TRIPOS>ATOM
      1 C1           3.7250     3.4610     1.1840 c3         1 Y52       0.150900
      2 O2           3.6430     2.1290     0.6490 os         1 Y52      -0.430100
      3 C3           3.1520     1.9710    -0.6210 c          1 Y52       0.619300
      4 O4           2.7730     2.8960    -1.3290 o          1 Y52      -0.512000
      5 C5           3.1090     0.5350    -1.0410 ce         1 Y52      -0.244400
      6 C6           2.6430     0.1950    -2.2630 c2         1 Y52       0.094100
      7 O7           2.5850    -1.1040    -2.6980 os         1 Y52      -0.319100
      8 C8           1.9990    -1.3690    -3.9830 c3         1 Y52       0.141900
      9 C9           3.5960    -0.5020    -0.0850 ca         1 Y52       0.015200
     10 C10          4.9090    -0.9900    -0.2250 ca         1 Y52      -0.092000
     11 C11          5.4020    -1.9720     0.6510 ca         1 Y52      -0.101000
     12 C12          4.5800    -2.4750     1.6710 ca         1 Y52      -0.111000
     13 C13          3.2670    -1.9960     1.8150 ca         1 Y52      -0.094000
     14 C14          2.7650    -1.0090     0.9420 ca         1 Y52      -0.067300
     15 C15          1.3340    -0.5160     1.1190 c3         1 Y52       0.086900
     16 S16          0.1820    -1.4360     0.0060 ss         1 Y52      -0.189200
     17 C17         -1.3720    -0.6690     0.3180 cc         1 Y52       0.403100
     18 S18         -1.5770     0.6660     1.4730 ss         1 Y52       0.003800
     19 C19         -3.2670     0.6070     0.9980 ca         1 Y52      -0.215000
     20 C20         -4.2830     1.4360     1.4930 ca         1 Y52      -0.032000
     21 C21         -5.5930     1.2600     1.0080 ca         1 Y52      -0.188000
     22 C22         -5.8630     0.2620     0.0390 ca         1 Y52       0.144100
     23 O23         -7.1290     0.0470    -0.4700 os         1 Y52      -0.340100
     24 C24         -8.2660     0.8240    -0.0520 c3         1 Y52       0.148900
     25 C25         -4.8190    -0.5530    -0.4360 ca         1 Y52      -0.104000
     26 C26         -3.5170    -0.3710     0.0530 ca         1 Y52       0.141400
     27 N27         -2.4280    -1.1290    -0.3600 nd         1 Y52      -0.530100
     28 H1           4.3800     4.0910     0.5680 h1         1 Y52       0.046700
     29 H2           2.7320     3.9270     1.2270 h1         1 Y52       0.046700
     30 H3           4.1340     3.4380     2.2020 h1         1 Y52       0.046700
     31 H4           2.2810     0.9380    -2.9790 h4         1 Y52       0.198000
     32 H5           2.0190    -2.4450    -4.1970 h1         1 Y52       0.051367
     33 H6           0.9540    -1.0350    -4.0100 h1         1 Y52       0.051367
     34 H7           2.5520    -0.8520    -4.7780 h1         1 Y52       0.051367
     35 H8           5.5470    -0.6050    -1.0160 ha         1 Y52       0.116000
     36 H9           6.4180    -2.3430     0.5360 ha         1 Y52       0.114000
     37 H10          4.9580    -3.2370     2.3490 ha         1 Y52       0.114000
     38 H11          2.6360    -2.3970     2.6060 ha         1 Y52       0.114000
     39 H12          1.0170    -0.6620     2.1600 h1         1 Y52       0.077700
     40 H13          1.2750     0.5560     0.8970 h1         1 Y52       0.077700
     41 H14         -4.0650     2.2000     2.2370 ha         1 Y52       0.122000
     42 H15         -6.3790     1.9030     1.3920 ha         1 Y52       0.119000
     43 H16         -9.1690     0.4900    -0.5790 h1         1 Y52       0.041700
     44 H17         -8.4400     0.7120     1.0260 h1         1 Y52       0.041700
     45 H18         -8.1160     1.8880    -0.2770 h1         1 Y52       0.041700
     46 H19         -5.0200    -1.3190    -1.1780 ha         1 Y52       0.146000
@<TRIPOS>BOND
     1     1     2 1   
     2     1    28 1   
     3     1    29 1   
     4     1    30 1   
     5     2     3 1   
     6     3     4 2   
     7     3     5 1   
     8     5     6 2   
     9     5     9 1   
    10     6     7 1   
    11     6    31 1   
    12     7     8 1   
    13     8    32 1   
    14     8    33 1   
    15     8    34 1   
    16     9    10 ar  
    17     9    14 ar  
    18    10    11 ar  
    19    10    35 1   
    20    11    12 ar  
    21    11    36 1   
    22    12    13 ar  
    23    12    37 1   
    24    13    14 ar  
    25    13    38 1   
    26    14    15 1   
    27    15    16 1   
    28    15    39 1   
    29    15    40 1   
    30    16    17 1   
    31    17    18 1   
    32    17    27 2   
    33    18    19 1   
    34    19    20 ar  
    35    19    26 ar  
    36    20    21 ar  
    37    20    41 1   
    38    21    22 ar  
    39    21    42 1   
    40    22    23 1   
    41    22    25 ar  
    42    23    24 1   
    43    24    43 1   
    44    24    44 1   
    45    24    45 1   
    46    25    26 ar  
    47    25    46 1   
    48    26    27 1   
@<TRIPOS>SUBSTRUCTURE
     1 Y52         1 TEMP              0 ****  ****    0 ROOT
