@<TRIPOS>MOLECULE
Y53
   56    59     1     0     0
SMALL
abcg2


@<TRIPOS>ATOM
      1 C3           8.6420    35.4550    24.2860 cc         1 Y53       0.258900
      2 C2           8.1670    35.5210    25.6150 cc         1 Y53      -0.167000
      3 C1           7.0230    34.7420    25.5890 cd         1 Y53      -0.146000
      4 C6           9.8590    37.6650    28.9270 cp         1 Y53      -0.275500
      5 C10          8.0110    36.4580    27.9060 ca         1 Y53      -0.180000
      6 C24         10.7800    40.8040    34.2880 c6         1 Y53       0.190300
      7 C16         11.7850    38.8820    30.0590 ca         1 Y53      -0.092000
      8 C8          10.0450    36.7490    26.6800 ca         1 Y53      -0.165000
      9 C11          8.5420    37.1530    28.9920 ca         1 Y53       0.213100
     10 C9           8.7410    36.2440    26.7440 ca         1 Y53       0.081000
     11 C12         11.3000    39.7840    32.1930 ca         1 Y53       0.529300
     12 N21         11.1600    40.9980    37.2170 n7         1 Y53      -0.893400
     13 N4           7.8640    34.7120    23.5260 nd         1 Y53      -0.522800
     14 N5           6.8980    34.2920    24.3350 na         1 Y53      -0.001200
     15 C7          10.5760    37.4390    27.7480 ca         1 Y53      -0.044000
     16 N13         10.0770    39.3160    32.1490 nb         1 Y53      -0.396000
     17 N14          9.6740    38.6460    31.0910 nb         1 Y53      -0.364000
     18 C15         10.4510    38.4120    30.0470 cp         1 Y53       0.366500
     19 C17         12.2200    39.5750    31.1450 ca         1 Y53      -0.127000
     20 O18         11.7140    40.4840    33.2390 os         1 Y53      -0.461300
     21 C19         10.5330    39.6230    35.2320 c6         1 Y53      -0.096900
     22 C20         11.3130    39.6970    36.5520 c6         1 Y53       0.209700
     23 C22         10.8130    42.1800    36.4210 c6         1 Y53       0.209700
     24 C23         11.3630    42.0160    35.0050 c6         1 Y53      -0.096900
     25 H3           9.5130    35.9320    23.8640 h4         1 Y53       0.039100
     26 H1           6.3170    34.4770    26.3590 h4         1 Y53       0.159000
     27 H10          6.9920    36.0990    27.9920 ha         1 Y53       0.125000
     28 H28B         8.9220    42.5820    37.4040 hc         1 Y53       0.038283
     29 H28A         9.0550    43.3240    35.8140 hc         1 Y53       0.038283
     30 H28C         8.7380    41.5960    35.9610 hc         1 Y53       0.038283
     31 H24          9.8330    41.0810    33.8190 h1         1 Y53       0.065700
     32 H25C        11.2840    38.6560    38.4560 hc         1 Y53       0.038283
     33 H25B         9.7010    38.7620    37.6740 hc         1 Y53       0.038283
     34 H25A        10.9110    37.6270    37.0730 hc         1 Y53       0.038283
     35 H16         12.4610    38.7010    29.2360 ha         1 Y53       0.136000
     36 H26B        13.3390    39.4090    37.2630 hc         1 Y53       0.038283
     37 H26A        12.9340    38.4200    35.8580 hc         1 Y53       0.038283
     38 H26C        13.2800    40.1320    35.6630 hc         1 Y53       0.038283
     39 H27A        11.1380    43.5180    38.0980 hc         1 Y53       0.038283
     40 H27C        12.5640    43.2790    37.0840 hc         1 Y53       0.038283
     41 H27B        11.2410    44.3140    36.5280 hc         1 Y53       0.038283
     42 H8          10.6530    36.5970    25.7980 ha         1 Y53       0.116000
     43 H21A        10.4990    40.9160    37.9790 hn         1 Y53       0.419000
     44 H5           6.1710    33.6910    23.9780 hn         1 Y53       0.373000
     45 H7          11.5860    37.8130    27.6470 ha         1 Y53       0.104000
     46 H17         13.2280    39.9600    31.2120 ha         1 Y53       0.145000
     47 H19B         9.4640    39.5900    35.4580 hc         1 Y53       0.060950
     48 H19A        10.7550    38.6770    34.7340 hc         1 Y53       0.060950
     49 H23B        12.4510    41.9290    35.0580 hc         1 Y53       0.060950
     50 H23A        11.1540    42.9220    34.4310 hc         1 Y53       0.060950
     51 H29          8.2580    37.8570    30.7180 ho         1 Y53       0.524000
     52 O29          7.7570    37.3070    30.0580 oh         1 Y53      -0.555100
     53 C28          9.2970    42.4290    36.3890 c3         1 Y53      -0.095600
     54 C25         10.7690    38.6230    37.4930 c3         1 Y53      -0.095600
     55 C26         12.8000    39.4030    36.3150 c3         1 Y53      -0.095600
     56 C27         11.4790    43.3950    37.0680 c3         1 Y53      -0.095600
@<TRIPOS>BOND
     1     1     2 1   
     2     1    13 2   
     3     1    25 1   
     4     2     3 2   
     5     2    10 1   
     6     3    14 1   
     7     3    26 1   
     8     4     9 ar  
     9     4    15 ar  
    10     4    18 1   
    11     5     9 ar  
    12     5    10 ar  
    13     5    27 1   
    14     6    20 1   
    15     6    21 1   
    16     6    24 1   
    17     6    31 1   
    18     7    18 ar  
    19     7    19 ar  
    20     7    35 1   
    21     8    10 ar  
    22     8    15 ar  
    23     8    42 1   
    24     9    52 1   
    25    11    16 ar  
    26    11    19 ar  
    27    11    20 1   
    28    12    22 1   
    29    12    23 1   
    30    12    43 1   
    31    13    14 1   
    32    14    44 1   
    33    15    45 1   
    34    16    17 ar  
    35    17    18 ar  
    36    19    46 1   
    37    21    22 1   
    38    21    47 1   
    39    21    48 1   
    40    22    54 1   
    41    22    55 1   
    42    23    24 1   
    43    23    53 1   
    44    23    56 1   
    45    24    49 1   
    46    24    50 1   
    47    28    53 1   
    48    29    53 1   
    49    30    53 1   
    50    32    54 1   
    51    33    54 1   
    52    34    54 1   
    53    36    55 1   
    54    37    55 1   
    55    38    55 1   
    56    39    56 1   
    57    40    56 1   
    58    41    56 1   
    59    51    52 1   
@<TRIPOS>SUBSTRUCTURE
     1 Y53         1 TEMP              0 ****  ****    0 ROOT
