@<TRIPOS>MOLECULE
Y53
   56    59     1     0     0
SMALL
No Charge or Current Charge


@<TRIPOS>ATOM
      1 C3           8.7950    35.1620    24.2160 cc         1 Y53       0.258900
      2 C2           8.2410    35.3530    25.4930 cc         1 Y53      -0.167000
      3 C1           7.0790    34.6350    25.5250 cd         1 Y53      -0.146000
      4 C6           9.7430    37.6930    28.8220 cp         1 Y53      -0.275500
      5 C10          8.0310    36.2180    27.8450 ca         1 Y53      -0.180000
      6 C24         10.7550    41.0710    34.2900 c6         1 Y53       0.190300
      7 C16         11.7080    38.7470    30.1090 ca         1 Y53      -0.092000
      8 C8           9.9440    36.8520    26.5150 ca         1 Y53      -0.165000
      9 C11          8.5170    36.9780    28.9190 ca         1 Y53       0.213100
     10 C9           8.7350    36.1430    26.6280 ca         1 Y53       0.081000
     11 C12         11.1990    39.9870    32.1260 ca         1 Y53       0.529300
     12 N21         11.2000    40.9460    37.2860 n7         1 Y53      -0.893400
     13 N4           8.0760    34.3800    23.4350 nd         1 Y53      -0.522800
     14 N5           6.9950    34.0460    24.2550 na         1 Y53      -0.001200
     15 C7          10.4390    37.6110    27.5870 ca         1 Y53      -0.044000
     16 N13          9.8760    39.7300    31.9360 nb         1 Y53      -0.396000
     17 N14          9.4530    39.0050    30.8770 nb         1 Y53      -0.364000
     18 C15         10.3170    38.5040    29.9560 cp         1 Y53       0.366500
     19 C17         12.1520    39.5070    31.2120 ca         1 Y53      -0.127000
     20 O18         11.6440    40.7330    33.1990 os         1 Y53      -0.461300
     21 C19         10.4200    39.8210    35.1590 c6         1 Y53      -0.096900
     22 C20         11.2550    39.7080    36.4650 c6         1 Y53       0.209700
     23 C22         10.9360    42.2390    36.6020 c6         1 Y53       0.209700
     24 C23         11.3880    42.2200    35.1160 c6         1 Y53      -0.096900
     25 H3           9.7160    35.5760    23.8260 h4         1 Y53       0.039100
     26 H1           6.3300    34.4880    26.2950 h4         1 Y53       0.159000
     27 H10          7.0940    35.6880    27.9740 ha         1 Y53       0.125000
     28 H28B         9.1140    42.6100    37.7990 hc         1 Y53       0.038283
     29 H28A         9.2120    43.5870    36.3320 hc         1 Y53       0.038283
     30 H28C         8.7660    41.8890    36.2270 hc         1 Y53       0.038283
     31 H24          9.8140    41.4540    33.8660 h1         1 Y53       0.065700
     32 H25C        11.2570    38.4490    38.2810 hc         1 Y53       0.038283
     33 H25B         9.6410    38.7500    37.6260 hc         1 Y53       0.038283
     34 H25A        10.7180    37.6000    36.8260 hc         1 Y53       0.038283
     35 H16         12.4260    38.3440    29.4030 ha         1 Y53       0.136000
     36 H26B        13.3220    39.2630    37.1050 hc         1 Y53       0.038283
     37 H26A        12.8300    38.4020    35.6430 hc         1 Y53       0.038283
     38 H26C        13.2470    40.1100    35.5620 hc         1 Y53       0.038283
     39 H27A        11.4320    43.3700    38.4330 hc         1 Y53       0.038283
     40 H27C        12.8100    43.1220    37.3540 hc         1 Y53       0.038283
     41 H27B        11.5750    44.3200    36.9480 hc         1 Y53       0.038283
     42 H8          10.5120    36.8230    25.5900 ha         1 Y53       0.116000
     43 H21A        10.4990    40.8270    38.0240 hn         1 Y53       0.419000
     44 H5           6.2460    33.4360    23.9250 hn         1 Y53       0.373000
     45 H7          11.3710    38.1520    27.4430 ha         1 Y53       0.104000
     46 H17         13.2060    39.7140    31.3660 ha         1 Y53       0.145000
     47 H19B         9.3540    39.8520    35.4150 hc         1 Y53       0.060950
     48 H19A        10.5380    38.9020    34.5700 hc         1 Y53       0.060950
     49 H23B        12.4820    42.1510    35.0710 hc         1 Y53       0.060950
     50 H23A        11.1400    43.1790    34.6410 hc         1 Y53       0.060950
     51 H29          8.1810    37.6840    30.6390 ho         1 Y53       0.524000
     52 O29          7.7770    36.9950    30.0590 oh         1 Y53      -0.555100
     53 C28          9.4230    42.5940    36.7470 c3         1 Y53      -0.095600
     54 C25         10.6860    38.5630    37.3510 c3         1 Y53      -0.095600
     55 C26         12.7460    39.3560    36.1760 c3         1 Y53      -0.095600
     56 C27         11.7320    43.3240    37.3790 c3         1 Y53      -0.095600
@<TRIPOS>BOND
     1     1     2 1   
     2     1    13 2   
     3     1    25 1   
     4     2     3 2   
     5     2    10 1   
     6     3    14 1   
     7     3    26 1   
     8     4     9 ar  
     9     4    15 ar  
    10     4    18 1   
    11     5     9 ar  
    12     5    10 ar  
    13     5    27 1   
    14     6    20 1   
    15     6    21 1   
    16     6    24 1   
    17     6    31 1   
    18     7    18 ar  
    19     7    19 ar  
    20     7    35 1   
    21     8    10 ar  
    22     8    15 ar  
    23     8    42 1   
    24     9    52 1   
    25    11    16 ar  
    26    11    19 ar  
    27    11    20 1   
    28    12    22 1   
    29    12    23 1   
    30    12    43 1   
    31    13    14 1   
    32    14    44 1   
    33    15    45 1   
    34    16    17 ar  
    35    17    18 ar  
    36    19    46 1   
    37    21    22 1   
    38    21    47 1   
    39    21    48 1   
    40    22    54 1   
    41    22    55 1   
    42    23    24 1   
    43    23    53 1   
    44    23    56 1   
    45    24    49 1   
    46    24    50 1   
    47    28    53 1   
    48    29    53 1   
    49    30    53 1   
    50    32    54 1   
    51    33    54 1   
    52    34    54 1   
    53    36    55 1   
    54    37    55 1   
    55    38    55 1   
    56    39    56 1   
    57    40    56 1   
    58    41    56 1   
    59    51    52 1   
@<TRIPOS>SUBSTRUCTURE
     1 Y53         1 TEMP              0 ****  ****    0 ROOT
