@<TRIPOS>MOLECULE
Y54
   72    76     1     0     0
SMALL
No Charge or Current Charge


@<TRIPOS>ATOM
      1 C01          2.9060    12.0550    32.6720 c3         1 Y54      -0.102100
      2 C02          2.1980    11.9530    34.0390 c3         1 Y54       0.161000
      3 N03          2.1370    10.5690    34.5020 ns         1 Y54      -0.506900
      4 C04          1.2630     9.6100    34.0350 c          1 Y54       0.612700
      5 C05          1.4360     8.2140    34.6320 ca         1 Y54      -0.104600
      6 C06          0.4010     7.2330    34.6030 ca         1 Y54      -0.072300
      7 C07         -0.9820     7.5050    34.0130 c3         1 Y54      -0.041800
      8 C08          0.6300     5.9590    35.1620 ca         1 Y54      -0.076000
      9 C09          1.8620     5.6410    35.7500 ca         1 Y54      -0.167000
     10 C10          2.8880     6.5890    35.7900 ca         1 Y54       0.311000
     11 N11          4.1070     6.2420    36.3760 nu         1 Y54      -0.957200
     12 C12          5.3310     7.0450    36.4990 cy         1 Y54       0.187500
     13 C13          6.6420     6.3630    37.0380 cy         1 Y54       0.122300
     14 N14          7.3770     7.3270    36.1510 n6         1 Y54      -0.841400
     15 C15          6.2010     7.3170    35.2160 cy         1 Y54       0.122300
     16 C16          2.6740     7.8630    35.2360 ca         1 Y54      -0.167000
     17 O17          0.4420     9.8820    33.1700 o          1 Y54      -0.588100
     18 C18          2.8650    12.8240    35.1010 ca         1 Y54      -0.096300
     19 C19          4.2170    12.6310    35.4500 ca         1 Y54      -0.099000
     20 C20          4.8150    13.4330    36.4330 ca         1 Y54      -0.110000
     21 C21          4.0690    14.4350    37.0760 ca         1 Y54      -0.091000
     22 C22          2.7160    14.6450    36.7400 ca         1 Y54      -0.005000
     23 C23          1.9190    15.6800    37.4070 cc         1 Y54      -0.155000
     24 C24          2.4760    16.8490    37.8650 cd         1 Y54      -0.128000
     25 C25          1.5160    17.7220    38.4450 cd         1 Y54      -0.132000
     26 C29         -1.8000    18.9590    36.7820 c5         1 Y54       0.174500
     27 C30         -0.5930    18.8700    35.8010 c5         1 Y54      -0.111400
     28 C32         -2.5480    20.0450    34.8380 c5         1 Y54       0.162300
     29 C34         -2.4360    20.3010    36.3570 c5         1 Y54      -0.113400
     30 C26          0.2310    17.2310    38.4180 cc         1 Y54      -0.255300
     31 N28         -1.3180    19.1110    38.1760 n7         1 Y54      -0.863400
     32 C31         -1.1050    19.5670    34.4960 c5         1 Y54      -0.075400
     33 O33         -2.9090    21.2210    34.1200 oh         1 Y54      -0.653000
     34 S35          0.1790    15.6310    37.6740 ss         1 Y54       0.220000
     35 C36          2.1230    13.8290    35.7550 ca         1 Y54      -0.084000
     36 H1           2.9620    13.1020    32.3500 hc         1 Y54       0.044700
     37 H2           3.9260    11.6550    32.7210 hc         1 Y54       0.044700
     38 H3           2.3570    11.4950    31.9060 hc         1 Y54       0.044700
     39 H4           1.1660    12.3060    33.9030 h1         1 Y54       0.077700
     40 H5           2.7660    10.2880    35.2410 hn         1 Y54       0.315500
     41 H6          -0.9350     7.6020    32.9220 hc         1 Y54       0.046033
     42 H7          -1.6880     6.6950    34.2340 hc         1 Y54       0.046033
     43 H8          -1.4170     8.4240    34.4230 hc         1 Y54       0.046033
     44 H9          -0.1550     5.2060    35.1460 ha         1 Y54       0.112000
     45 H10          2.0150     4.6530    36.1750 ha         1 Y54       0.111000
     46 H11          4.1390     5.2910    36.7500 hn         1 Y54       0.478000
     47 H12          5.0900     7.9660    37.0470 h1         1 Y54       0.067700
     48 H13          6.7280     5.3070    36.7510 h1         1 Y54       0.053450
     49 H14          6.8020     6.4680    38.1180 h1         1 Y54       0.053450
     50 H15          8.2830     7.0280    35.7640 hn         1 Y54       0.413000
     51 H17          5.9750     8.2580    34.7000 h1         1 Y54       0.053450
     52 H18          6.1790     6.4850    34.5000 h1         1 Y54       0.053450
     53 H19          3.4920     8.5740    35.2590 ha         1 Y54       0.116000
     54 H20          4.8050    11.8560    34.9640 ha         1 Y54       0.105000
     55 H21          5.8570    13.2760    36.7020 ha         1 Y54       0.116000
     56 H22          4.5460    15.0360    37.8460 ha         1 Y54       0.116000
     57 H23          3.5300    17.0980    37.7850 ha         1 Y54       0.134000
     58 H24          1.7740    18.6920    38.8610 ha         1 Y54       0.131000
     59 H25         -0.8750    18.1160    39.9950 h1         1 Y54       0.061700
     60 H26         -1.8610    17.1720    38.8720 h1         1 Y54       0.061700
     61 H27         -2.5070    18.1240    36.6650 h1         1 Y54       0.055700
     62 H28         -0.2960    17.8320    35.6160 hc         1 Y54       0.048700
     63 H29          0.2930    19.3900    36.1850 hc         1 Y54       0.048700
     64 H30         -3.2730    19.2420    34.6390 h1         1 Y54       0.027700
     65 H31         -1.8000    21.1640    36.5860 hc         1 Y54       0.055700
     66 H32         -3.4120    20.4640    36.8280 hc         1 Y54       0.055700
     67 H33         -0.4770    19.6970    38.1830 hn         1 Y54       0.417000
     68 H35         -1.1040    18.8860    33.6370 hc         1 Y54       0.054200
     69 H36         -0.4550    20.4090    34.2320 hc         1 Y54       0.054200
     70 H37         -3.8100    21.4720    34.4230 ho         1 Y54       0.443000
     71 H38          1.0810    13.9810    35.4870 ha         1 Y54       0.118000
     72 C27         -1.0220    17.8800    38.9320 c3         1 Y54       0.243100
@<TRIPOS>BOND
     1     1     2 1   
     2     1    36 1   
     3     1    37 1   
     4     1    38 1   
     5     2     3 1   
     6     2    18 1   
     7     2    39 1   
     8     3     4 1   
     9     3    40 1   
    10     4     5 1   
    11     4    17 2   
    12     5     6 ar  
    13     5    16 ar  
    14     6     7 1   
    15     6     8 ar  
    16     7    41 1   
    17     7    42 1   
    18     7    43 1   
    19     8     9 ar  
    20     8    44 1   
    21     9    10 ar  
    22     9    45 1   
    23    10    11 1   
    24    10    16 ar  
    25    11    12 1   
    26    11    46 1   
    27    12    13 1   
    28    12    15 1   
    29    12    47 1   
    30    13    14 1   
    31    13    48 1   
    32    13    49 1   
    33    14    15 1   
    34    14    50 1   
    35    15    51 1   
    36    15    52 1   
    37    16    53 1   
    38    18    19 ar  
    39    18    35 ar  
    40    19    20 ar  
    41    19    54 1   
    42    20    21 ar  
    43    20    55 1   
    44    21    22 ar  
    45    21    56 1   
    46    22    23 1   
    47    22    35 ar  
    48    23    24 2   
    49    23    34 1   
    50    24    25 1   
    51    24    57 1   
    52    25    30 2   
    53    25    58 1   
    54    26    27 1   
    55    26    29 1   
    56    26    31 1   
    57    26    61 1   
    58    27    32 1   
    59    27    62 1   
    60    27    63 1   
    61    28    29 1   
    62    28    32 1   
    63    28    33 1   
    64    28    64 1   
    65    29    65 1   
    66    29    66 1   
    67    30    34 1   
    68    30    72 1   
    69    31    67 1   
    70    31    72 1   
    71    32    68 1   
    72    32    69 1   
    73    33    70 1   
    74    35    71 1   
    75    59    72 1   
    76    60    72 1   
@<TRIPOS>SUBSTRUCTURE
     1 Y54         1 TEMP              0 ****  ****    0 ROOT
