@<TRIPOS>MOLECULE
Y54
   72    76     1     0     0
SMALL
bcc


@<TRIPOS>ATOM
      1 C01          2.3410    12.2930    32.6030 c3         1 Y54      -0.102100
      2 C02          1.7100    11.8570    33.9190 c3         1 Y54       0.161000
      3 N03          1.7760    10.4140    34.0300 ns         1 Y54      -0.573900
      4 C04          1.0220     9.7160    34.9000 c          1 Y54       0.679700
      5 C05          1.4110     8.2770    35.0550 ca         1 Y54      -0.104600
      6 C06          0.4690     7.2550    34.9300 ca         1 Y54      -0.072300
      7 C07         -0.9690     7.5010    34.5670 c3         1 Y54      -0.041800
      8 C08          0.9260     5.9540    35.1420 ca         1 Y54      -0.094000
      9 C09          2.2360     5.6720    35.4830 ca         1 Y54      -0.185000
     10 C10          3.1760     6.7020    35.6180 ca         1 Y54       0.172600
     11 N11          4.4810     6.4210    35.9340 nu         1 Y54      -0.763600
     12 C12          5.3860     7.4360    36.3840 cy         1 Y54       0.187500
     13 C13          6.7800     6.9530    36.8020 cy         1 Y54       0.122300
     14 N14          7.3590     8.1230    36.1260 n6         1 Y54      -0.786200
     15 C15          6.1300     8.2940    35.3390 cy         1 Y54       0.122300
     16 C16          2.7370     8.0090    35.3860 ca         1 Y54      -0.185000
     17 O17          0.1020    10.2150    35.5300 o          1 Y54      -0.588100
     18 C18          2.3810    12.5320    35.0990 ca         1 Y54      -0.096300
     19 C19          3.6350    12.1150    35.5380 ca         1 Y54      -0.117000
     20 C20          4.2480    12.7590    36.6020 ca         1 Y54      -0.128000
     21 C21          3.6200    13.8170    37.2410 ca         1 Y54      -0.109000
     22 C22          2.3680    14.2570    36.8100 ca         1 Y54      -0.005000
     23 C23          1.7130    15.3780    37.4820 cc         1 Y54      -0.010100
     24 C24          2.2880    16.4000    38.1890 cd         1 Y54      -0.146000
     25 C25          1.3460    17.3110    38.7250 cd         1 Y54      -0.150000
     26 C29         -1.4600    18.9070    36.5870 c5         1 Y54       0.174500
     27 C30         -0.1230    18.8040    35.8020 c5         1 Y54      -0.111400
     28 C32         -1.8040    19.9880    34.4880 c5         1 Y54       0.139100
     29 C34         -2.1480    20.1200    35.9650 c5         1 Y54      -0.113400
     30 C26          0.0540    16.9900    38.4290 cc         1 Y54      -0.110400
     31 N28         -1.3890    19.0040    38.0310 n7         1 Y54      -0.808200
     32 C31         -0.3220    19.6180    34.5090 c5         1 Y54      -0.075400
     33 O33         -2.0150    21.1400    33.7070 oh         1 Y54      -0.590800
     34 S35         -0.0070    15.5490    37.4930 ss         1 Y54      -0.069800
     35 C36          1.7640    13.6000    35.7340 ca         1 Y54      -0.102000
     36 H1           2.2840    13.3760    32.5010 hc         1 Y54       0.044700
     37 H2           3.3930    12.0060    32.5520 hc         1 Y54       0.044700
     38 H3           1.8200    11.8430    31.7570 hc         1 Y54       0.044700
     39 H4           0.6570    12.1480    33.9090 h1         1 Y54       0.077700
     40 H5           2.5140     9.9350    33.5370 hn         1 Y54       0.315500
     41 H6          -1.0710     8.1960    33.7330 hc         1 Y54       0.046033
     42 H7          -1.4520     6.5690    34.2780 hc         1 Y54       0.046033
     43 H8          -1.5340     7.9180    35.4010 hc         1 Y54       0.046033
     44 H9           0.2300     5.1300    35.0390 ha         1 Y54       0.130000
     45 H10          2.5390     4.6450    35.6480 ha         1 Y54       0.129000
     46 H11          4.6520     5.4970    36.2980 hn         1 Y54       0.422800
     47 H12          4.9370     8.0710    37.1570 h1         1 Y54       0.067700
     48 H13          7.0240     5.9950    36.3300 h1         1 Y54       0.053450
     49 H14          6.9860     6.8800    37.8720 h1         1 Y54       0.053450
     50 H15          8.1890     7.9290    35.5820 hn         1 Y54       0.357800
     51 H17          5.8060     9.3300    35.2080 h1         1 Y54       0.053450
     52 H18          6.1410     7.7990    34.3620 h1         1 Y54       0.053450
     53 H19          3.4310     8.8350    35.4840 ha         1 Y54       0.134000
     54 H20          4.1370    11.2830    35.0570 ha         1 Y54       0.123000
     55 H21          5.2180    12.4260    36.9470 ha         1 Y54       0.134000
     56 H22          4.1000    14.2870    38.0900 ha         1 Y54       0.134000
     57 H23          3.3580    16.5070    38.3100 ha         1 Y54       0.152000
     58 H24          1.6180    18.1870    39.3000 ha         1 Y54       0.149000
     59 H25         -1.1870    18.0020    39.8200 h1         1 Y54       0.061700
     60 H26         -2.0710    17.1300    38.5920 h1         1 Y54       0.061700
     61 H27         -2.0660    18.0220    36.3600 h1         1 Y54       0.055700
     62 H28          0.1420    17.7670    35.5990 hc         1 Y54       0.048700
     63 H29          0.6900    19.2210    36.3990 hc         1 Y54       0.048700
     64 H30         -2.3750    19.1390    34.0820 h1         1 Y54       0.027700
     65 H31         -1.7070    21.0430    36.3610 hc         1 Y54       0.055700
     66 H32         -3.2210    20.1440    36.1680 hc         1 Y54       0.055700
     67 H33         -0.6840    19.6800    38.3000 hn         1 Y54       0.361800
     68 H35         -0.0150    19.0770    33.6130 hc         1 Y54       0.054200
     69 H36          0.2660    20.5400    34.5440 hc         1 Y54       0.054200
     70 H37         -2.9620    21.3090    33.6720 ho         1 Y54       0.404000
     71 H38          0.7960    13.9300    35.3720 ha         1 Y54       0.136000
     72 C27         -1.1960    17.7650    38.7540 c3         1 Y54       0.243100
@<TRIPOS>BOND
     1     1     2 1   
     2     1    36 1   
     3     1    37 1   
     4     1    38 1   
     5     2     3 1   
     6     2    18 1   
     7     2    39 1   
     8     3     4 1   
     9     3    40 1   
    10     4     5 1   
    11     4    17 2   
    12     5     6 ar  
    13     5    16 ar  
    14     6     7 1   
    15     6     8 ar  
    16     7    41 1   
    17     7    42 1   
    18     7    43 1   
    19     8     9 ar  
    20     8    44 1   
    21     9    10 ar  
    22     9    45 1   
    23    10    11 1   
    24    10    16 ar  
    25    11    12 1   
    26    11    46 1   
    27    12    13 1   
    28    12    15 1   
    29    12    47 1   
    30    13    14 1   
    31    13    48 1   
    32    13    49 1   
    33    14    15 1   
    34    14    50 1   
    35    15    51 1   
    36    15    52 1   
    37    16    53 1   
    38    18    19 ar  
    39    18    35 ar  
    40    19    20 ar  
    41    19    54 1   
    42    20    21 ar  
    43    20    55 1   
    44    21    22 ar  
    45    21    56 1   
    46    22    23 1   
    47    22    35 ar  
    48    23    24 2   
    49    23    34 1   
    50    24    25 1   
    51    24    57 1   
    52    25    30 2   
    53    25    58 1   
    54    26    27 1   
    55    26    29 1   
    56    26    31 1   
    57    26    61 1   
    58    27    32 1   
    59    27    62 1   
    60    27    63 1   
    61    28    29 1   
    62    28    32 1   
    63    28    33 1   
    64    28    64 1   
    65    29    65 1   
    66    29    66 1   
    67    30    34 1   
    68    30    72 1   
    69    31    67 1   
    70    31    72 1   
    71    32    68 1   
    72    32    69 1   
    73    33    70 1   
    74    35    71 1   
    75    59    72 1   
    76    60    72 1   
@<TRIPOS>SUBSTRUCTURE
     1 Y54         1 TEMP              0 ****  ****    0 ROOT
