@<TRIPOS>MOLECULE
Y55
   27    29     1     0     0
SMALL
No Charge or Current Charge


@<TRIPOS>ATOM
      1 N           -3.1140     0.6380     0.1200 n          1 Y55      -0.255900
      2 C1          -1.8140     1.0900    -0.2020 c          1 Y55       0.606600
      3 C10          3.0800    -0.0420    -0.0100 cc         1 Y55       0.171500
      4 C11          4.1840    -0.8200     0.2090 cd         1 Y55      -0.161000
      5 C12          5.2920     0.0510     0.1310 cd         1 Y55      -0.188000
      6 C13          4.8120     1.3090    -0.1270 cc         1 Y55       0.137900
      7 C2          -0.7100     0.0580    -0.1370 ca         1 Y55      -0.153600
      8 C3          -1.0240    -1.3130    -0.0480 ca         1 Y55      -0.040300
      9 C4          -2.4770    -1.7500    -0.1820 c6         1 Y55      -0.115100
     10 C5          -3.4070    -0.7030     0.4290 c          1 Y55       0.569000
     11 C6           0.6440     0.4580    -0.1310 ca         1 Y55      -0.028000
     12 C7           1.6830    -0.4920    -0.0210 ca         1 Y55      -0.119500
     13 C8           1.3460    -1.8600     0.0740 ca         1 Y55      -0.063000
     14 C9           0.0020    -2.2660     0.0530 ca         1 Y55      -0.117000
     15 O1          -1.5890     2.2630    -0.4780 o          1 Y55      -0.470000
     16 O2          -4.3120    -1.0160     1.1940 o          1 Y55      -0.536000
     17 O3          -4.1470     1.6440     0.3730 oh         1 Y55      -0.417100
     18 O4           3.4370     1.2700    -0.2150 os         1 Y55      -0.233000
     19 H1           4.2130    -1.8860     0.4060 ha         1 Y55       0.141000
     20 H2           6.3370    -0.2170     0.2540 ha         1 Y55       0.145000
     21 H3           5.3040     2.2630    -0.2620 h4         1 Y55       0.057100
     22 H4          -2.6850    -1.7630    -1.2590 hc         1 Y55       0.097700
     23 H5          -2.6820    -2.7420     0.2430 hc         1 Y55       0.097700
     24 H6           0.8890     1.5170    -0.1960 ha         1 Y55       0.155000
     25 H7           2.1180    -2.6210     0.1490 ha         1 Y55       0.124000
     26 H8          -0.2380    -3.3260     0.1000 ha         1 Y55       0.123000
     27 H9          -4.6050     1.7720    -0.4900 ho         1 Y55       0.471000
@<TRIPOS>BOND
     1     1     2 1   
     2     1    10 1   
     3     1    17 1   
     4     2     7 1   
     5     2    15 2   
     6     3     4 2   
     7     3    12 1   
     8     3    18 1   
     9     4     5 1   
    10     4    19 1   
    11     5     6 2   
    12     5    20 1   
    13     6    18 1   
    14     6    21 1   
    15     7     8 ar  
    16     7    11 ar  
    17     8     9 1   
    18     8    14 ar  
    19     9    10 1   
    20     9    22 1   
    21     9    23 1   
    22    10    16 2   
    23    11    12 ar  
    24    11    24 1   
    25    12    13 ar  
    26    13    14 ar  
    27    13    25 1   
    28    14    26 1   
    29    17    27 1   
@<TRIPOS>SUBSTRUCTURE
     1 Y55         1 TEMP              0 ****  ****    0 ROOT
