@<TRIPOS>MOLECULE
Y55
   27    29     1     0     0
SMALL
abcg2


@<TRIPOS>ATOM
      1 N           -2.9970     0.7030    -0.0290 n          1 Y55      -0.255900
      2 C1          -1.6840     1.1410    -0.0240 c          1 Y55       0.606600
      3 C10          3.0880    -0.1310     0.0100 cc         1 Y55       0.171500
      4 C11          4.2350    -0.8650     0.0090 cd         1 Y55      -0.161000
      5 C12          5.3100     0.0690     0.0110 cd         1 Y55      -0.188000
      6 C13          4.7380     1.2960     0.0140 cc         1 Y55       0.137900
      7 C2          -0.6630     0.0780    -0.0080 ca         1 Y55      -0.153600
      8 C3          -1.0240    -1.2630     0.0030 ca         1 Y55      -0.040300
      9 C4          -2.4560    -1.6830     0.0050 c6         1 Y55      -0.115100
     10 C5          -3.4670    -0.5850    -0.0190 c          1 Y55       0.569000
     11 C6           0.6770     0.4600    -0.0060 ca         1 Y55      -0.028000
     12 C7           1.6820    -0.4980     0.0080 ca         1 Y55      -0.119500
     13 C8           1.3130    -1.8490     0.0200 ca         1 Y55      -0.063000
     14 C9          -0.0150    -2.2220     0.0180 ca         1 Y55      -0.117000
     15 O1          -1.4360     2.3230    -0.0330 o          1 Y55      -0.470000
     16 O2          -4.6670    -0.7730    -0.0270 o          1 Y55      -0.536000
     17 O3          -3.9240     1.7000    -0.0460 oh         1 Y55      -0.417100
     18 O4           3.3950     1.1840     0.0130 os         1 Y55      -0.233000
     19 H1           4.3140    -1.9400     0.0050 ha         1 Y55       0.141000
     20 H2           6.3650    -0.1480     0.0100 ha         1 Y55       0.145000
     21 H3           5.1390     2.2960     0.0160 h4         1 Y55       0.057100
     22 H4          -2.6610    -2.3280    -0.8550 hc         1 Y55       0.097700
     23 H5          -2.6680    -2.2950     0.8860 hc         1 Y55       0.097700
     24 H6           0.9180     1.5140    -0.0160 ha         1 Y55       0.155000
     25 H7           2.0730    -2.6190     0.0320 ha         1 Y55       0.124000
     26 H8          -0.2740    -3.2730     0.0270 ha         1 Y55       0.123000
     27 H9          -4.7750     1.2270    -0.0480 ho         1 Y55       0.471000
@<TRIPOS>BOND
     1     1     2 1   
     2     1    10 1   
     3     1    17 1   
     4     2     7 1   
     5     2    15 2   
     6     3     4 2   
     7     3    12 1   
     8     3    18 1   
     9     4     5 1   
    10     4    19 1   
    11     5     6 2   
    12     5    20 1   
    13     6    18 1   
    14     6    21 1   
    15     7     8 ar  
    16     7    11 ar  
    17     8     9 1   
    18     8    14 ar  
    19     9    10 1   
    20     9    22 1   
    21     9    23 1   
    22    10    16 2   
    23    11    12 ar  
    24    11    24 1   
    25    12    13 ar  
    26    13    14 ar  
    27    13    25 1   
    28    14    26 1   
    29    17    27 1   
@<TRIPOS>SUBSTRUCTURE
     1 Y55         1 TEMP              0 ****  ****    0 ROOT
