@<TRIPOS>MOLECULE
Y56
   80    85     1     0     0
SMALL
No Charge or Current Charge


@<TRIPOS>ATOM
      1 C01         23.0460    21.4720     3.3320 c3         1 Y56       0.147600
      2 C03         21.3980    22.7470     4.6910 c3         1 Y56       0.161800
      3 C04         22.1460    24.1010     4.6630 c3         1 Y56      -0.068400
      4 C05         21.7350    25.1010     5.7800 c3         1 Y56      -0.153400
      5 C06         20.2650    25.5650     5.6950 c          1 Y56       0.604100
      6 C08         19.6150    24.8070     8.0600 ca         1 Y56      -0.010000
      7 C09         19.2290    25.4480     9.2480 ca         1 Y56      -0.144500
      8 C10         19.3320    24.7870    10.4850 ca         1 Y56      -0.055500
      9 C11         19.8220    23.4640    10.5520 ca         1 Y56      -0.153600
     10 C12         19.9320    22.7140    11.8620 c          1 Y56       0.611700
     11 C14         21.1110    24.6420    13.0300 c5         1 Y56       0.109000
     12 C15         21.7870    24.5830    14.4280 c5         1 Y56      -0.105400
     13 C16         20.6450    23.9750    15.2750 c5         1 Y56       0.225500
     14 C18         20.4710    22.8070    17.4080 ca         1 Y56       0.377900
     15 C20         20.2270    21.1850    19.0020 ca         1 Y56       0.146900
     16 C21         18.9240    21.6380    19.2510 ca         1 Y56      -0.270000
     17 C22         18.4470    22.7250    18.4990 ca         1 Y56       0.278800
     18 C23         17.1220    23.2850    18.7540 cc         1 Y56      -0.385400
     19 C24         16.2510    23.5990    17.7500 cd         1 Y56      -0.032000
     20 C25         16.3900    23.5330    16.3300 cd         1 Y56      -0.090000
     21 C26         15.2640    23.9040    15.6260 cc         1 Y56      -0.086000
     22 C27         14.0590    24.3040    16.3170 cc         1 Y56      -0.158000
     23 C28         13.9420    24.3390    17.7060 cd         1 Y56      -0.074000
     24 C31         16.3890    23.4780    19.9710 cc         1 Y56       0.468200
     25 C32         16.9260    23.3910    21.3470 ca         1 Y56      -0.112900
     26 C33         18.3060    23.5440    21.6220 ca         1 Y56      -0.082000
     27 C34         18.7900    23.5000    22.9410 ca         1 Y56      -0.117000
     28 C35         17.9020    23.3290    24.0130 ca         1 Y56      -0.101000
     29 C36         16.5270    23.2200    23.7650 ca         1 Y56      -0.117000
     30 C37         16.0420    23.2650    22.4460 ca         1 Y56      -0.082000
     31 C39         20.2280    22.7820    14.3680 c5         1 Y56       0.068000
     32 C41         20.1550    22.8060     9.3500 ca         1 Y56      -0.055500
     33 C42         20.0540    23.4720     8.1160 ca         1 Y56      -0.144500
     34 C44         20.7150    20.7210     3.4790 c3         1 Y56       0.147600
     35 N02         21.6320    21.8830     3.5070 n3         1 Y56      -0.711600
     36 N07         19.4740    25.5070     6.8360 ns         1 Y56      -0.173000
     37 N13         20.2510    23.4290    13.0360 n          1 Y56      -0.415800
     38 N19         21.0080    21.7730    18.0770 nb         1 Y56      -0.247000
     39 N29         15.0950    23.9630    18.4000 na         1 Y56       0.310400
     40 N30         15.1390    23.8950    19.7700 nd         1 Y56      -0.577100
     41 N38         19.2380    23.3210    17.5850 nb         1 Y56      -0.270000
     42 O40         19.6790    21.5170    11.9170 o          1 Y56      -0.602100
     43 O43         19.8300    26.0860     4.6750 o          1 Y56      -0.589100
     44 H1          23.7000    22.3420     3.1910 h1         1 Y56       0.031533
     45 H2          23.4020    20.9090     4.2060 h1         1 Y56       0.031533
     46 H3          23.1560    20.8330     2.4460 h1         1 Y56       0.031533
     47 H4          20.3230    22.9600     4.7650 h1         1 Y56       0.028700
     48 H5          21.6860    22.2070     5.6030 h1         1 Y56       0.028700
     49 H6          23.2240    23.9190     4.7480 hc         1 Y56       0.061700
     50 H7          21.9840    24.5730     3.6860 hc         1 Y56       0.061700
     51 H8          21.9690    24.6830     6.7640 hc         1 Y56       0.064200
     52 H9          22.3560    25.9960     5.6630 hc         1 Y56       0.064200
     53 H10         18.8470    26.4660     9.2170 ha         1 Y56       0.125500
     54 H11         18.9950    25.3000    11.3820 ha         1 Y56       0.128000
     55 H12         21.8490    24.6300    12.2160 h1         1 Y56       0.053200
     56 H13         20.5050    25.5520    12.9390 h1         1 Y56       0.053200
     57 H14         22.6750    23.9400    14.3940 hc         1 Y56       0.063700
     58 H15         22.1040    25.5690    14.7840 hc         1 Y56       0.063700
     59 H16         19.8330    24.6940    15.4670 h1         1 Y56       0.090700
     60 H17         20.6530    20.3460    19.5500 h4         1 Y56       0.021100
     61 H18         18.3030    21.1550    20.0000 ha         1 Y56       0.143000
     62 H19         17.2970    23.2160    15.8300 ha         1 Y56       0.153000
     63 H20         15.2680    23.8940    14.5400 ha         1 Y56       0.127000
     64 H21         13.2030    24.5830    15.7090 ha         1 Y56       0.135000
     65 H22         13.0650    24.6190    18.2750 h4         1 Y56       0.161000
     66 H23         19.0160    23.7350    20.8230 ha         1 Y56       0.122500
     67 H24         19.8550    23.6150    23.1320 ha         1 Y56       0.115000
     68 H25         18.2780    23.2980    25.0340 ha         1 Y56       0.113000
     69 H26         15.8330    23.1040    24.5940 ha         1 Y56       0.115000
     70 H27         14.9700    23.1790    22.2820 ha         1 Y56       0.122500
     71 H28         19.2340    22.3950    14.6260 h1         1 Y56       0.064200
     72 H29         20.9480    21.9530    14.4080 h1         1 Y56       0.064200
     73 H30         20.4990    21.7740     9.3710 ha         1 Y56       0.128000
     74 H31         20.2970    22.9330     7.2080 ha         1 Y56       0.125500
     75 H32         19.6680    21.0500     3.5210 h1         1 Y56       0.031533
     76 H33         20.8480    20.1430     2.5550 h1         1 Y56       0.031533
     77 H34         20.9000    20.0550     4.3320 h1         1 Y56       0.031533
     78 H36         18.5890    25.9880     6.7430 hn         1 Y56       0.158000
     79 N17         21.3250    23.4000    16.4770 nu         1 Y56      -0.916100
     80 H37         22.2290    22.9360    16.3860 hn         1 Y56       0.498000
@<TRIPOS>BOND
     1     1    35 1   
     2     1    44 1   
     3     1    45 1   
     4     1    46 1   
     5     2     3 1   
     6     2    35 1   
     7     2    47 1   
     8     2    48 1   
     9     3     4 1   
    10     3    49 1   
    11     3    50 1   
    12     4     5 1   
    13     4    51 1   
    14     4    52 1   
    15     5    36 1   
    16     5    43 2   
    17     6     7 ar  
    18     6    33 ar  
    19     6    36 1   
    20     7     8 ar  
    21     7    53 1   
    22     8     9 ar  
    23     8    54 1   
    24     9    10 1   
    25     9    32 ar  
    26    10    37 1   
    27    10    42 2   
    28    11    12 1   
    29    11    37 1   
    30    11    55 1   
    31    11    56 1   
    32    12    13 1   
    33    12    57 1   
    34    12    58 1   
    35    13    31 1   
    36    13    59 1   
    37    13    79 1   
    38    14    38 ar  
    39    14    41 ar  
    40    14    79 1   
    41    15    16 ar  
    42    15    38 ar  
    43    15    60 1   
    44    16    17 ar  
    45    16    61 1   
    46    17    18 1   
    47    17    41 ar  
    48    18    19 2   
    49    18    24 1   
    50    19    20 1   
    51    19    39 1   
    52    20    21 2   
    53    20    62 1   
    54    21    22 1   
    55    21    63 1   
    56    22    23 2   
    57    22    64 1   
    58    23    39 1   
    59    23    65 1   
    60    24    25 1   
    61    24    40 2   
    62    25    26 ar  
    63    25    30 ar  
    64    26    27 ar  
    65    26    66 1   
    66    27    28 ar  
    67    27    67 1   
    68    28    29 ar  
    69    28    68 1   
    70    29    30 ar  
    71    29    69 1   
    72    30    70 1   
    73    31    37 1   
    74    31    71 1   
    75    31    72 1   
    76    32    33 ar  
    77    32    73 1   
    78    33    74 1   
    79    34    35 1   
    80    34    75 1   
    81    34    76 1   
    82    34    77 1   
    83    36    78 1   
    84    39    40 1   
    85    79    80 1   
@<TRIPOS>SUBSTRUCTURE
     1 Y56         1 TEMP              0 ****  ****    0 ROOT
