@<TRIPOS>MOLECULE
Y56
   80    85     1     0     0
SMALL
abcg2


@<TRIPOS>ATOM
      1 C01         23.1100    21.5000     3.4320 c3         1 Y56       0.147600
      2 C03         21.4300    22.7460     4.6580 c3         1 Y56       0.161800
      3 C04         22.2110    24.0490     4.7960 c3         1 Y56      -0.068400
      4 C05         21.7250    24.8960     5.9760 c3         1 Y56      -0.153400
      5 C06         20.3380    25.4640     5.7600 c          1 Y56       0.604100
      6 C08         19.4750    24.7250     8.0100 ca         1 Y56      -0.010000
      7 C09         19.1100    25.4340     9.1540 ca         1 Y56      -0.144500
      8 C10         19.1270    24.8160    10.3960 ca         1 Y56      -0.055500
      9 C11         19.5050    23.4790    10.5150 ca         1 Y56      -0.153600
     10 C12         19.4650    22.7510    11.8220 c          1 Y56       0.611700
     11 C14         20.9300    24.5020    12.9090 c5         1 Y56       0.109000
     12 C15         21.7330    24.3090    14.1910 c5         1 Y56      -0.105400
     13 C16         20.7190    23.6480    15.1260 c5         1 Y56       0.225500
     14 C18         20.6460    22.7150    17.4150 ca         1 Y56       0.377900
     15 C20         20.6240    21.6340    19.4070 ca         1 Y56       0.146900
     16 C21         19.3350    22.0670    19.6580 ca         1 Y56      -0.270000
     17 C22         18.7410    22.8880    18.6890 ca         1 Y56       0.278800
     18 C23         17.3860    23.4020    18.8140 cc         1 Y56      -0.385400
     19 C24         16.5420    23.7540    17.7400 cd         1 Y56      -0.032000
     20 C25         16.6420    23.8140    16.3360 cd         1 Y56      -0.090000
     21 C26         15.5470    24.1880    15.6010 cc         1 Y56      -0.086000
     22 C27         14.3250    24.5130    16.2390 cc         1 Y56      -0.158000
     23 C28         14.2300    24.4500    17.5970 cd         1 Y56      -0.074000
     24 C31         16.5820    23.5700    19.9700 cc         1 Y56       0.468200
     25 C32         16.9390    23.4140    21.3910 ca         1 Y56      -0.112900
     26 C33         18.0720    24.0440    21.9140 ca         1 Y56      -0.082000
     27 C34         18.3890    23.9150    23.2590 ca         1 Y56      -0.117000
     28 C35         17.5800    23.1540    24.0990 ca         1 Y56      -0.101000
     29 C36         16.4490    22.5270    23.5870 ca         1 Y56      -0.117000
     30 C37         16.1270    22.6590    22.2410 ca         1 Y56      -0.082000
     31 C39         19.9940    22.6620    14.1960 c5         1 Y56       0.068000
     32 C41         19.8390    22.7660     9.3640 ca         1 Y56      -0.055500
     33 C42         19.8230    23.3780     8.1200 ca         1 Y56      -0.144500
     34 C44         20.7960    20.9120     3.2500 c3         1 Y56       0.147600
     35 N02         21.7420    22.0040     3.4390 n3         1 Y56      -0.711600
     36 N07         19.4120    25.3780     6.7570 ns         1 Y56      -0.173000
     37 N13         20.0280    23.3330    12.8960 n          1 Y56      -0.415800
     38 N19         21.3040    21.9440    18.3040 nb         1 Y56      -0.247000
     39 N29         15.3230    24.0750    18.3160 na         1 Y56       0.310400
     40 N30         15.3430    23.9750    19.6660 nd         1 Y56      -0.577100
     41 N38         19.4060    23.1980    17.5640 nb         1 Y56      -0.270000
     42 O40         18.9160    21.6430    11.8990 o          1 Y56      -0.602100
     43 O43         20.0550    26.0600     4.7220 o          1 Y56      -0.589100
     44 H1          23.8240    22.3220     3.4700 h1         1 Y56       0.031533
     45 H2          23.3110    20.8280     4.2840 h1         1 Y56       0.031533
     46 H3          23.2860    20.9430     2.5110 h1         1 Y56       0.031533
     47 H4          20.3610    22.9710     4.6340 h1         1 Y56       0.028700
     48 H5          21.6020    22.1190     5.5530 h1         1 Y56       0.028700
     49 H6          23.2720    23.8450     4.9430 hc         1 Y56       0.061700
     50 H7          22.1140    24.6230     3.8730 hc         1 Y56       0.061700
     51 H8          21.7980    24.3400     6.9080 hc         1 Y56       0.064200
     52 H9          22.3740    25.7710     6.0780 hc         1 Y56       0.064200
     53 H10         18.8150    26.4720     9.0660 ha         1 Y56       0.125500
     54 H11         18.8320    25.3800    11.2700 ha         1 Y56       0.128000
     55 H12         21.5470    24.5230    12.0140 h1         1 Y56       0.053200
     56 H13         20.3550    25.4280    12.9560 h1         1 Y56       0.053200
     57 H14         22.5700    23.6270    14.0190 hc         1 Y56       0.063700
     58 H15         22.1220    25.2470    14.5840 hc         1 Y56       0.063700
     59 H16         20.0070    24.3950    15.4760 h1         1 Y56       0.090700
     60 H17         21.1360    20.9990    20.1240 h4         1 Y56       0.021100
     61 H18         18.8150    21.7680    20.5520 ha         1 Y56       0.143000
     62 H19         17.5860    23.5750    15.8780 ha         1 Y56       0.153000
     63 H20         15.6140    24.2400    14.5230 ha         1 Y56       0.127000
     64 H21         13.4610    24.8110    15.6650 ha         1 Y56       0.135000
     65 H22         13.3440    24.6750    18.1700 h4         1 Y56       0.161000
     66 H23         18.7010    24.6370    21.2630 ha         1 Y56       0.122500
     67 H24         19.2670    24.4110    23.6540 ha         1 Y56       0.115000
     68 H25         17.8310    23.0510    25.1480 ha         1 Y56       0.113000
     69 H26         15.8160    21.9330    24.2350 ha         1 Y56       0.115000
     70 H27         15.2500    22.1680    21.8400 ha         1 Y56       0.122500
     71 H28         18.9690    22.4560    14.5010 h1         1 Y56       0.064200
     72 H29         20.5340    21.7120    14.1540 h1         1 Y56       0.064200
     73 H30         20.0970    21.7180     9.4430 ha         1 Y56       0.128000
     74 H31         20.0580    22.8060     7.2350 ha         1 Y56       0.125500
     75 H32         19.7790    21.3060     3.2110 h1         1 Y56       0.031533
     76 H33         21.0060    20.3990     2.3100 h1         1 Y56       0.031533
     77 H34         20.8450    20.1670     4.0640 h1         1 Y56       0.031533
     78 H36         18.5950    25.9550     6.5990 hn         1 Y56       0.158000
     79 N17         21.3280    23.0400    16.2830 nu         1 Y56      -0.916100
     80 H37         22.1910    22.5350    16.1440 hn         1 Y56       0.498000
@<TRIPOS>BOND
     1     1    35 1   
     2     1    44 1   
     3     1    45 1   
     4     1    46 1   
     5     2     3 1   
     6     2    35 1   
     7     2    47 1   
     8     2    48 1   
     9     3     4 1   
    10     3    49 1   
    11     3    50 1   
    12     4     5 1   
    13     4    51 1   
    14     4    52 1   
    15     5    36 1   
    16     5    43 2   
    17     6     7 ar  
    18     6    33 ar  
    19     6    36 1   
    20     7     8 ar  
    21     7    53 1   
    22     8     9 ar  
    23     8    54 1   
    24     9    10 1   
    25     9    32 ar  
    26    10    37 1   
    27    10    42 2   
    28    11    12 1   
    29    11    37 1   
    30    11    55 1   
    31    11    56 1   
    32    12    13 1   
    33    12    57 1   
    34    12    58 1   
    35    13    31 1   
    36    13    59 1   
    37    13    79 1   
    38    14    38 ar  
    39    14    41 ar  
    40    14    79 1   
    41    15    16 ar  
    42    15    38 ar  
    43    15    60 1   
    44    16    17 ar  
    45    16    61 1   
    46    17    18 1   
    47    17    41 ar  
    48    18    19 2   
    49    18    24 1   
    50    19    20 1   
    51    19    39 1   
    52    20    21 2   
    53    20    62 1   
    54    21    22 1   
    55    21    63 1   
    56    22    23 2   
    57    22    64 1   
    58    23    39 1   
    59    23    65 1   
    60    24    25 1   
    61    24    40 2   
    62    25    26 ar  
    63    25    30 ar  
    64    26    27 ar  
    65    26    66 1   
    66    27    28 ar  
    67    27    67 1   
    68    28    29 ar  
    69    28    68 1   
    70    29    30 ar  
    71    29    69 1   
    72    30    70 1   
    73    31    37 1   
    74    31    71 1   
    75    31    72 1   
    76    32    33 ar  
    77    32    73 1   
    78    33    74 1   
    79    34    35 1   
    80    34    75 1   
    81    34    76 1   
    82    34    77 1   
    83    36    78 1   
    84    39    40 1   
    85    79    80 1   
@<TRIPOS>SUBSTRUCTURE
     1 Y56         1 TEMP              0 ****  ****    0 ROOT
