@<TRIPOS>MOLECULE
Y57
   48    48     1     0     0
SMALL
bcc


@<TRIPOS>ATOM
      1 C10          4.7570    -0.5470    32.2200 c3         1 Y57       0.205500
      2 N           -0.0170     1.3520    37.3740 n8         1 Y57      -0.890800
      3 CA          -0.3090     1.8000    36.0130 c3         1 Y57       0.013500
      4 C           -1.5440     1.1230    35.3720 c          1 Y57       0.899600
      5 O           -1.6620    -0.1050    35.5730 o          1 Y57      -0.841800
      6 CB           0.9280     1.5540    35.1470 c3         1 Y57      -0.047400
      7 CG           0.8220     2.0760    33.7180 c3         1 Y57      -0.073400
      8 CD           2.1430     2.0540    32.9540 c3         1 Y57      -0.075400
      9 CE           2.7020     0.6490    32.7570 c3         1 Y57       0.182800
     10 C01          4.1340     2.6830    28.7840 ca         1 Y57      -0.069300
     11 C02          2.9790     3.3680    28.4090 ca         1 Y57      -0.126500
     12 C03          2.7180     3.6500    27.0740 ca         1 Y57      -0.131000
     13 C04          3.6110     3.2470    26.0890 ca         1 Y57      -0.139000
     14 C05          4.7630     2.5600    26.4490 ca         1 Y57      -0.131000
     15 C06          5.0190     2.2800    27.7850 ca         1 Y57      -0.126500
     16 C07          4.3820     2.3290    30.2220 c3         1 Y57      -0.041100
     17 C08          3.7360     0.9860    30.5830 c3         1 Y57       0.189800
     18 C11          6.1710    -0.3440    31.6880 c3         1 Y57      -0.106100
     19 C12          4.1670    -1.8630    31.7060 c3         1 Y57      -0.106100
     20 NZ           3.9260     0.6290    31.9790 n3         1 Y57      -0.765600
     21 H1           4.8370    -0.6300    33.3090 h1         1 Y57       0.054700
     22 H2          -0.7900     1.6100    37.9760 hn         1 Y57       0.325300
     23 H           -0.0310     0.3370    37.3650 hn         1 Y57       0.325300
     24 HA          -0.4830     2.8810    36.0520 h1         1 Y57       0.037700
     25 HB2          1.1370     0.4790    35.1410 hc         1 Y57       0.022200
     26 HB3          1.7850     2.0270    35.6380 hc         1 Y57       0.022200
     27 HG2          0.4500     3.1050    33.7420 hc         1 Y57       0.052700
     28 HG3          0.0780     1.5010    33.1590 hc         1 Y57       0.052700
     29 HD2          2.8880     2.6620    33.4780 hc         1 Y57       0.027700
     30 HD3          1.9880     2.5290    31.9810 hc         1 Y57       0.027700
     31 HE2          1.9110     0.0160    32.3180 h1         1 Y57       0.037700
     32 HE3          2.9260     0.2160    33.7360 h1         1 Y57       0.037700
     33 H15          2.2800     3.6870    29.1730 ha         1 Y57       0.131500
     34 H16          1.8180     4.1870    26.8040 ha         1 Y57       0.124000
     35 H17          3.4110     3.4680    25.0490 ha         1 Y57       0.121000
     36 H18          5.4650     2.2430    25.6890 ha         1 Y57       0.124000
     37 H19          5.9210     1.7440    28.0590 ha         1 Y57       0.131500
     38 H20          5.4540     2.2700    30.4190 hc         1 Y57       0.054200
     39 H21          3.9800     3.1050    30.8770 hc         1 Y57       0.054200
     40 H22          2.6680     1.0300    30.3400 h1         1 Y57       0.032200
     41 H23          4.1460     0.2190    29.9180 h1         1 Y57       0.032200
     42 H24          6.6060     0.5780    32.0750 hc         1 Y57       0.032367
     43 H25          6.8090    -1.1730    31.9940 hc         1 Y57       0.032367
     44 H26          6.2000    -0.3000    30.5980 hc         1 Y57       0.032367
     45 H27          3.1680    -2.0420    32.1060 hc         1 Y57       0.032367
     46 H28          4.1000    -1.8770    30.6160 hc         1 Y57       0.032367
     47 H29          4.7960    -2.7040    32.0020 hc         1 Y57       0.032367
     48 OXT         -2.2990     1.8430    34.6880 o          1 Y57      -0.841800
@<TRIPOS>BOND
     1     1    18 1   
     2     1    19 1   
     3     1    20 1   
     4     1    21 1   
     5     2     3 1   
     6     2    22 1   
     7     2    23 1   
     8     3     4 1   
     9     3     6 1   
    10     3    24 1   
    11     4     5 1   
    12     4    48 1   
    13     6     7 1   
    14     6    25 1   
    15     6    26 1   
    16     7     8 1   
    17     7    27 1   
    18     7    28 1   
    19     8     9 1   
    20     8    29 1   
    21     8    30 1   
    22     9    20 1   
    23     9    31 1   
    24     9    32 1   
    25    10    11 ar  
    26    10    15 ar  
    27    10    16 1   
    28    11    12 ar  
    29    11    33 1   
    30    12    13 ar  
    31    12    34 1   
    32    13    14 ar  
    33    13    35 1   
    34    14    15 ar  
    35    14    36 1   
    36    15    37 1   
    37    16    17 1   
    38    16    38 1   
    39    16    39 1   
    40    17    20 1   
    41    17    40 1   
    42    17    41 1   
    43    18    42 1   
    44    18    43 1   
    45    18    44 1   
    46    19    45 1   
    47    19    46 1   
    48    19    47 1   
@<TRIPOS>SUBSTRUCTURE
     1 Y57         1 TEMP              0 ****  ****    0 ROOT
