@<TRIPOS>MOLECULE
Y57
   48    48     1     0     0
SMALL
No Charge or Current Charge


@<TRIPOS>ATOM
      1 C10          4.7520    -0.7130    32.1790 c3         1 Y57       0.205500
      2 N            0.0480     1.8070    37.5170 n8         1 Y57      -0.890800
      3 CA          -0.3300     1.8900    36.0560 c3         1 Y57       0.013500
      4 C           -1.5180     0.9470    35.5720 c          1 Y57       0.899600
      5 O           -1.4420    -0.2590    35.7900 o          1 Y57      -0.841800
      6 CB           0.9400     1.7100    35.1800 c3         1 Y57      -0.047400
      7 CG           0.7060     1.9720    33.6700 c3         1 Y57      -0.073400
      8 CD           1.9920     1.9470    32.8080 c3         1 Y57      -0.075400
      9 CE           2.6800     0.5610    32.7290 c3         1 Y57       0.182800
     10 C01          4.1120     2.7460    28.7740 ca         1 Y57      -0.069300
     11 C02          2.9210     3.3720    28.3560 ca         1 Y57      -0.126500
     12 C03          2.7410     3.7250    27.0070 ca         1 Y57      -0.131000
     13 C04          3.7500     3.4530    26.0680 ca         1 Y57      -0.139000
     14 C05          4.9390     2.8260    26.4790 ca         1 Y57      -0.131000
     15 C06          5.1190     2.4730    27.8280 ca         1 Y57      -0.126500
     16 C07          4.3030     2.3560    30.2330 c3         1 Y57      -0.041100
     17 C08          3.8030     0.9250    30.5190 c3         1 Y57       0.189800
     18 C11          6.2200    -0.5640    31.7120 c3         1 Y57      -0.106100
     19 C12          4.1070    -1.9980    31.6010 c3         1 Y57      -0.106100
     20 NZ           3.9500     0.5230    31.9490 n3         1 Y57      -0.765600
     21 H1           4.8140    -0.8690    33.2660 h1         1 Y57       0.054700
     22 H2          -0.7790     2.0050    38.0910 hn         1 Y57       0.325300
     23 H            0.2760     0.8320    37.7400 hn         1 Y57       0.325300
     24 HA          -0.6790     2.9200    35.8960 h1         1 Y57       0.037700
     25 HB2          1.3240     0.6920    35.3180 hc         1 Y57       0.022200
     26 HB3          1.7200     2.3950    35.5360 hc         1 Y57       0.022200
     27 HG2          0.2350     2.9560    33.5540 hc         1 Y57       0.052700
     28 HG3         -0.0020     1.2360    33.2700 hc         1 Y57       0.052700
     29 HD2          2.7040     2.6830    33.2010 hc         1 Y57       0.027700
     30 HD3          1.7190     2.2750    31.7980 hc         1 Y57       0.027700
     31 HE2          1.9600    -0.1540    32.3080 h1         1 Y57       0.037700
     32 HE3          2.8890     0.2330    33.7560 h1         1 Y57       0.037700
     33 H15          2.1340     3.5830    29.0780 ha         1 Y57       0.131500
     34 H16          1.8190     4.2090    26.6910 ha         1 Y57       0.124000
     35 H17          3.6110     3.7260    25.0240 ha         1 Y57       0.121000
     36 H18          5.7210     2.6140    25.7520 ha         1 Y57       0.124000
     37 H19          6.0410     1.9850    28.1380 ha         1 Y57       0.131500
     38 H20          5.3630     2.4190    30.5050 hc         1 Y57       0.054200
     39 H21          3.7820     3.0680    30.8830 hc         1 Y57       0.054200
     40 H22          2.7520     0.8480    30.2070 h1         1 Y57       0.032200
     41 H23          4.3590     0.2480    29.8580 h1         1 Y57       0.032200
     42 H24          6.6640     0.3480    32.1270 hc         1 Y57       0.032367
     43 H25          6.8170    -1.4160    32.0570 hc         1 Y57       0.032367
     44 H26          6.2980    -0.5200    30.6190 hc         1 Y57       0.032367
     45 H27          3.1060    -2.1600    32.0160 hc         1 Y57       0.032367
     46 H28          4.0250    -1.9500    30.5090 hc         1 Y57       0.032367
     47 H29          4.7150    -2.8750    31.8550 hc         1 Y57       0.032367
     48 OXT         -2.5330     1.4650    35.1190 o          1 Y57      -0.841800
@<TRIPOS>BOND
     1     1    18 1   
     2     1    19 1   
     3     1    20 1   
     4     1    21 1   
     5     2     3 1   
     6     2    22 1   
     7     2    23 1   
     8     3     4 1   
     9     3     6 1   
    10     3    24 1   
    11     4     5 1   
    12     4    48 1   
    13     6     7 1   
    14     6    25 1   
    15     6    26 1   
    16     7     8 1   
    17     7    27 1   
    18     7    28 1   
    19     8     9 1   
    20     8    29 1   
    21     8    30 1   
    22     9    20 1   
    23     9    31 1   
    24     9    32 1   
    25    10    11 ar  
    26    10    15 ar  
    27    10    16 1   
    28    11    12 ar  
    29    11    33 1   
    30    12    13 ar  
    31    12    34 1   
    32    13    14 ar  
    33    13    35 1   
    34    14    15 ar  
    35    14    36 1   
    36    15    37 1   
    37    16    17 1   
    38    16    38 1   
    39    16    39 1   
    40    17    20 1   
    41    17    40 1   
    42    17    41 1   
    43    18    42 1   
    44    18    43 1   
    45    18    44 1   
    46    19    45 1   
    47    19    46 1   
    48    19    47 1   
@<TRIPOS>SUBSTRUCTURE
     1 Y57         1 TEMP              0 ****  ****    0 ROOT
