@<TRIPOS>MOLECULE
Y58
   61    64     1     0     0
SMALL
abcg2


@<TRIPOS>ATOM
      1 C13        -12.2920    12.1800    -0.4530 ca         1 Y58      -0.103500
      2 C12        -10.9290    12.3470    -0.2500 ca         1 Y58      -0.109000
      3 C10        -10.7670    10.0500     0.4550 ca         1 Y58      -0.094000
      4 C02        -18.3780     7.0350    -0.8240 c6         1 Y58       0.133300
      5 C03        -17.6790     8.3000    -1.3190 c6         1 Y58       0.071300
      6 C07        -14.2510     8.2490    -0.3460 cc         1 Y58       0.243300
      7 C09        -12.1350     9.8900     0.2540 ca         1 Y58      -0.104000
      8 C11        -10.1700    11.2780     0.2090 ca         1 Y58      -0.103500
      9 C14        -12.9020    10.9600    -0.1960 ca         1 Y58      -0.094000
     10 C15        -15.5580     8.4060     0.0420 cd         1 Y58      -0.140000
     11 C16        -18.2810     9.5730    -0.7160 c6         1 Y58       0.149300
     12 C18        -19.7900     9.5330    -0.9940 c6         1 Y58       0.264300
     13 C20        -22.2300    10.8060    -0.9030 c6         1 Y58       0.295300
     14 C21        -23.2140    11.6680    -0.1160 c6         1 Y58       0.127300
     15 C23        -24.5820    11.5460    -0.7930 c6         1 Y58       0.093300
     16 C25        -24.4830    11.9070    -2.2700 c6         1 Y58       0.149300
     17 C27        -23.4030    11.0490    -2.9260 c6         1 Y58       0.166300
     18 C28        -23.1710    11.3570    -4.3890 c3         1 Y58       0.176600
     19 C32        -19.8720     7.1940    -1.1080 c6         1 Y58       0.132300
     20 C33        -20.6860     6.0180    -0.6140 c3         1 Y58       0.171600
     21 N04        -16.2500     8.2470    -1.0940 na         1 Y58       0.133800
     22 N05        -15.4340     8.0100    -2.1160 nd         1 Y58      -0.205800
     23 N06        -14.2300     8.0000    -1.6750 nc         1 Y58      -0.311000
     24 O17        -17.6860    10.6790    -1.3320 oh         1 Y58      -0.697000
     25 O22        -23.2400    11.2050     1.2080 oh         1 Y58      -0.703000
     26 O24        -25.5330    12.4050    -0.2040 oh         1 Y58      -0.666000
     27 O26        -25.6930    11.6680    -2.9430 oh         1 Y58      -0.719000
     28 O29        -22.8530    12.7180    -4.5470 oh         1 Y58      -0.710000
     29 O30        -22.1780    11.2330    -2.2360 os         1 Y58      -0.430000
     30 O31        -20.3580     8.3640    -0.4770 os         1 Y58      -0.415000
     31 O34        -22.0120     6.1750    -1.0580 oh         1 Y58      -0.710000
     32 S08        -12.8240     8.3010     0.6500 ss         1 Y58      -0.106300
     33 S19        -20.5760    10.9460    -0.1890 ss         1 Y58      -0.311000
     34 H131       -12.8930    13.0070    -0.8100 ha         1 Y58       0.112500
     35 H121       -10.4610    13.3020    -0.4510 ha         1 Y58       0.113000
     36 H101       -10.1640     9.2160     0.7950 ha         1 Y58       0.118000
     37 H021       -18.0010     6.1860    -1.4080 h1         1 Y58       0.059700
     38 H031       -17.7990     8.3480    -2.4050 h1         1 Y58       0.108700
     39 H111        -9.1060    11.3940     0.3670 ha         1 Y58       0.112500
     40 H141       -13.9670    10.8510    -0.3510 ha         1 Y58       0.118000
     41 H151       -15.9990     8.6210     0.9990 h4         1 Y58       0.183000
     42 H161       -18.1350     9.5800     0.3710 h1         1 Y58       0.072700
     43 H181       -19.9550     9.6050    -2.0790 h2         1 Y58       0.080700
     44 H201       -22.5420     9.7530    -0.8430 h2         1 Y58       0.084700
     45 H211       -22.8820    12.7160    -0.1720 h1         1 Y58       0.068700
     46 H231       -24.9040    10.4960    -0.7160 h1         1 Y58       0.052700
     47 H251       -24.1890    12.9640    -2.3470 h1         1 Y58       0.075700
     48 H271       -23.7120     9.9930    -2.8650 h1         1 Y58       0.050700
     49 H282       -24.0760    11.0770    -4.9390 h1         1 Y58       0.034200
     50 H281       -22.3660    10.7040    -4.7530 h1         1 Y58       0.034200
     51 H321       -19.9960     7.2720    -2.2000 h1         1 Y58       0.058700
     52 H332       -20.2280     5.1020    -1.0100 h1         1 Y58       0.030700
     53 H331       -20.6260     5.9640     0.4790 h1         1 Y58       0.030700
     54 H171       -17.4310    11.3200    -0.6630 ho         1 Y58       0.522000
     55 H221       -23.6780    11.8630     1.7570 ho         1 Y58       0.510000
     56 H241       -25.9480    11.9550     0.5370 ho         1 Y58       0.451000
     57 H261       -26.3840    12.1670    -2.4950 ho         1 Y58       0.521000
     58 H291       -22.8240    12.9120    -5.4880 ho         1 Y58       0.504000
     59 H341       -22.5410     5.4680    -0.6750 ho         1 Y58       0.509000
     60 O01        -18.1080     6.8820     0.5460 oh         1 Y58      -0.709000
     61 H011       -18.0370     5.9460     0.7540 ho         1 Y58       0.515000
@<TRIPOS>BOND
     1     1     2 ar  
     2     1     9 ar  
     3     1    34 1   
     4     2     8 ar  
     5     2    35 1   
     6     3     7 ar  
     7     3     8 ar  
     8     3    36 1   
     9     4     5 1   
    10     4    19 1   
    11     4    37 1   
    12     4    60 1   
    13     5    11 1   
    14     5    21 1   
    15     5    38 1   
    16     6    10 2   
    17     6    23 1   
    18     6    32 1   
    19     7     9 ar  
    20     7    32 1   
    21     8    39 1   
    22     9    40 1   
    23    10    21 1   
    24    10    41 1   
    25    11    12 1   
    26    11    24 1   
    27    11    42 1   
    28    12    30 1   
    29    12    33 1   
    30    12    43 1   
    31    13    14 1   
    32    13    29 1   
    33    13    33 1   
    34    13    44 1   
    35    14    15 1   
    36    14    25 1   
    37    14    45 1   
    38    15    16 1   
    39    15    26 1   
    40    15    46 1   
    41    16    17 1   
    42    16    27 1   
    43    16    47 1   
    44    17    18 1   
    45    17    29 1   
    46    17    48 1   
    47    18    28 1   
    48    18    49 1   
    49    18    50 1   
    50    19    20 1   
    51    19    30 1   
    52    19    51 1   
    53    20    31 1   
    54    20    52 1   
    55    20    53 1   
    56    21    22 1   
    57    22    23 2   
    58    24    54 1   
    59    25    55 1   
    60    26    56 1   
    61    27    57 1   
    62    28    58 1   
    63    31    59 1   
    64    60    61 1   
@<TRIPOS>SUBSTRUCTURE
     1 Y58         1 TEMP              0 ****  ****    0 ROOT
