@<TRIPOS>MOLECULE
Y58
   61    64     1     0     0
SMALL
No Charge or Current Charge


@<TRIPOS>ATOM
      1 C13        -12.4790    12.1290    -0.2930 ca         1 Y58      -0.103500
      2 C12        -11.0940    12.1730    -0.5300 ca         1 Y58      -0.109000
      3 C10        -10.8840     9.8900     0.2910 ca         1 Y58      -0.094000
      4 C02        -18.3010     7.1700    -0.9560 c6         1 Y58       0.133300
      5 C03        -17.5300     8.4870    -1.2860 c6         1 Y58       0.071300
      6 C07        -14.1670     8.2430    -0.0950 cc         1 Y58       0.243300
      7 C09        -12.2720     9.8360     0.5170 ca         1 Y58      -0.104000
      8 C11        -10.2970    11.0540    -0.2360 ca         1 Y58      -0.103500
      9 C14        -13.0670    10.9660     0.2340 ca         1 Y58      -0.094000
     10 C15        -15.4670     8.4320     0.2310 cd         1 Y58      -0.140000
     11 C16        -18.1770     9.7100    -0.5600 c6         1 Y58       0.149300
     12 C18        -19.7030     9.7700    -0.9010 c6         1 Y58       0.264300
     13 C20        -22.2710    10.8490    -0.6990 c6         1 Y58       0.295300
     14 C21        -23.3460    11.7900    -0.0650 c6         1 Y58       0.127300
     15 C23        -24.7080    11.5420    -0.7730 c6         1 Y58       0.093300
     16 C25        -24.5660    11.7320    -2.3110 c6         1 Y58       0.149300
     17 C27        -23.4150    10.8200    -2.8460 c6         1 Y58       0.166300
     18 C28        -23.1330    11.0280    -4.3720 c3         1 Y58       0.176600
     19 C32        -19.8040     7.3900    -1.3310 c6         1 Y58       0.132300
     20 C33        -20.7070     6.1410    -1.0660 c3         1 Y58       0.171600
     21 N04        -16.0800     8.3550    -1.0040 na         1 Y58       0.133800
     22 N05        -15.1520     8.1330    -2.0020 nd         1 Y58      -0.205800
     23 N06        -13.9720     8.0780    -1.4330 nc         1 Y58      -0.311000
     24 O17        -17.5090    10.9380    -0.9310 oh         1 Y58      -0.697000
     25 O22        -23.4930    11.5830     1.3600 oh         1 Y58      -0.703000
     26 O24        -25.7200    12.4170    -0.2430 oh         1 Y58      -0.666000
     27 O26        -25.8310    11.4440    -2.9360 oh         1 Y58      -0.719000
     28 O29        -22.6160    12.3360    -4.6980 oh         1 Y58      -0.710000
     29 O30        -22.1880    11.0940    -2.1190 os         1 Y58      -0.430000
     30 O31        -20.3380     8.5140    -0.5880 os         1 Y58      -0.415000
     31 O34        -22.0790     6.3480    -1.4560 oh         1 Y58      -0.710000
     32 S08        -12.9850     8.3390     1.2060 ss         1 Y58      -0.106300
     33 S19        -20.5900    11.1000     0.0220 ss         1 Y58      -0.311000
     34 H131       -13.0960    12.9980    -0.5140 ha         1 Y58       0.112500
     35 H121       -10.6400    13.0740    -0.9370 ha         1 Y58       0.113000
     36 H101       -10.2620     9.0270     0.5180 ha         1 Y58       0.118000
     37 H021       -17.8940     6.3660    -1.5890 h1         1 Y58       0.059700
     38 H031       -17.6270     8.6640    -2.3660 h1         1 Y58       0.108700
     39 H111        -9.2240    11.0880    -0.4140 ha         1 Y58       0.112500
     40 H141       -14.1380    10.9510     0.4240 ha         1 Y58       0.118000
     41 H151       -15.9720     8.6030     1.1710 h4         1 Y58       0.183000
     42 H161       -18.0900     9.5530     0.5260 h1         1 Y58       0.072700
     43 H181       -19.8290     9.9900    -1.9720 h2         1 Y58       0.080700
     44 H201       -22.5470     9.7990    -0.5160 h2         1 Y58       0.084700
     45 H211       -23.0360    12.8290    -0.2610 h1         1 Y58       0.068700
     46 H231       -24.9930    10.4960    -0.5850 h1         1 Y58       0.052700
     47 H251       -24.2830    12.7790    -2.5030 h1         1 Y58       0.075700
     48 H271       -23.6860     9.7650    -2.6910 h1         1 Y58       0.050700
     49 H282       -24.0620    10.8380    -4.9250 h1         1 Y58       0.034200
     50 H281       -22.4150    10.2570    -4.6830 h1         1 Y58       0.034200
     51 H321       -19.8730     7.6170    -2.4060 h1         1 Y58       0.058700
     52 H332       -20.2850     5.2910    -1.6190 h1         1 Y58       0.030700
     53 H331       -20.6570     5.8950     0.0030 h1         1 Y58       0.030700
     54 H171       -17.9410    11.6680    -0.4280 ho         1 Y58       0.522000
     55 H221       -22.6110    11.7460     1.7700 ho         1 Y58       0.510000
     56 H241       -25.5460    12.4470     0.7270 ho         1 Y58       0.451000
     57 H261       -26.5020    11.8210    -2.3160 ho         1 Y58       0.521000
     58 H291       -22.4240    12.3350    -5.6650 ho         1 Y58       0.504000
     59 H341       -22.5770     5.5380    -1.1950 ho         1 Y58       0.509000
     60 O01        -18.1420     6.8320     0.4420 oh         1 Y58      -0.709000
     61 H011       -18.3000     5.8640     0.5380 ho         1 Y58       0.515000
@<TRIPOS>BOND
     1     1     2 ar  
     2     1     9 ar  
     3     1    34 1   
     4     2     8 ar  
     5     2    35 1   
     6     3     7 ar  
     7     3     8 ar  
     8     3    36 1   
     9     4     5 1   
    10     4    19 1   
    11     4    37 1   
    12     4    60 1   
    13     5    11 1   
    14     5    21 1   
    15     5    38 1   
    16     6    10 2   
    17     6    23 1   
    18     6    32 1   
    19     7     9 ar  
    20     7    32 1   
    21     8    39 1   
    22     9    40 1   
    23    10    21 1   
    24    10    41 1   
    25    11    12 1   
    26    11    24 1   
    27    11    42 1   
    28    12    30 1   
    29    12    33 1   
    30    12    43 1   
    31    13    14 1   
    32    13    29 1   
    33    13    33 1   
    34    13    44 1   
    35    14    15 1   
    36    14    25 1   
    37    14    45 1   
    38    15    16 1   
    39    15    26 1   
    40    15    46 1   
    41    16    17 1   
    42    16    27 1   
    43    16    47 1   
    44    17    18 1   
    45    17    29 1   
    46    17    48 1   
    47    18    28 1   
    48    18    49 1   
    49    18    50 1   
    50    19    20 1   
    51    19    30 1   
    52    19    51 1   
    53    20    31 1   
    54    20    52 1   
    55    20    53 1   
    56    21    22 1   
    57    22    23 2   
    58    24    54 1   
    59    25    55 1   
    60    26    56 1   
    61    27    57 1   
    62    28    58 1   
    63    31    59 1   
    64    60    61 1   
@<TRIPOS>SUBSTRUCTURE
     1 Y58         1 TEMP              0 ****  ****    0 ROOT
