@<TRIPOS>MOLECULE
Y5B
   60    63     1     0     0
SMALL
abcg2


@<TRIPOS>ATOM
      1 C33         11.1560    78.3850    -0.1190 c3         1 Y5B       0.120300
      2 C34          9.9440    79.1030    -0.7820 c3         1 Y5B       0.293000
      3 C9          14.5250    73.6350    -2.6400 ca         1 Y5B      -0.089500
      4 C13         17.7410    74.4420     0.9410 ca         1 Y5B      -0.097500
      5 C18         15.4060    72.8770    -0.1280 ca         1 Y5B      -0.103000
      6 C19         13.7180    72.8170    -1.8550 ca         1 Y5B      -0.097300
      7 C1          19.8540    74.7740    -0.8290 ca         1 Y5B      -0.111000
      8 C2          14.1740    72.4430    -0.5910 ca         1 Y5B      -0.089500
      9 C10         15.7610    74.0680    -2.1790 ca         1 Y5B      -0.103000
     10 C11         16.2260    73.6990    -0.9130 cp         1 Y5B      -0.020000
     11 C12         17.5410    74.1640    -0.4170 cp         1 Y5B      -0.039000
     12 C14         18.9760    74.8790     1.4050 ca         1 Y5B      -0.111000
     13 C15         20.0380    75.0480     0.5230 ca         1 Y5B      -0.104000
     14 C24         11.4020    75.1380    -2.1340 ca         1 Y5B      -0.096000
     15 C27         10.9710    75.9390     0.4840 ca         1 Y5B      -0.069500
     16 O42         10.9550    78.6140     1.2490 oh         1 Y5B      -0.620000
     17 C01          9.1190    72.6420    -3.0720 ca         1 Y5B      -0.316500
     18 C02          9.4150    72.0470    -4.2970 ca         1 Y5B      -0.014500
     19 C03          8.9200    72.6220    -5.4610 ca         1 Y5B      -0.129500
     20 C04          8.1470    73.7780    -5.3960 ca         1 Y5B      -0.055000
     21 C05          7.8600    74.3640    -4.1660 ca         1 Y5B      -0.129500
     22 C06          8.3480    73.7990    -2.9950 ca         1 Y5B      -0.014500
     23 C16         12.3810    72.3480    -2.3610 c3         1 Y5B       0.253100
     24 C17         18.6190    74.3370    -1.2940 ca         1 Y5B      -0.097500
     25 C23         11.2300    74.1820    -1.1380 ca         1 Y5B       0.262000
     26 C25         11.3790    76.4870    -1.8190 ca         1 Y5B      -0.069500
     27 C26         11.1690    76.9030    -0.5030 ca         1 Y5B      -0.145300
     28 C28         11.0150    74.5880     0.1730 ca         1 Y5B      -0.096000
     29 C38         12.5090    79.0650    -0.5070 c3         1 Y5B       0.293000
     30 F35          9.8340    80.3800    -0.3880 f          1 Y5B      -0.096000
     31 F36          8.8070    78.4780    -0.4380 f          1 Y5B      -0.096000
     32 F37         10.0230    79.1000    -2.1220 f          1 Y5B      -0.096000
     33 F39         13.5120    78.4160     0.1160 f          1 Y5B      -0.096000
     34 F40         12.7680    79.0470    -1.8220 f          1 Y5B      -0.096000
     35 F41         12.5550    80.3440    -0.1080 f          1 Y5B      -0.096000
     36 O13          9.0180    72.3850    -0.4790 o          1 Y5B      -0.535500
     37 O14         10.1440    70.5950    -1.7940 o          1 Y5B      -0.535500
     38 S12          9.8390    71.9910    -1.5960 sy         1 Y5B       1.183600
     39 H2          16.9190    74.3360     1.6360 ha         1 Y5B       0.113000
     40 H3          15.7460    72.5570     0.8490 ha         1 Y5B       0.117500
     41 H4          20.6760    74.8940    -1.5250 ha         1 Y5B       0.114000
     42 H5          13.5580    71.8080     0.0330 ha         1 Y5B       0.116500
     43 H6          16.3590    74.7220    -2.8010 ha         1 Y5B       0.117500
     44 H7          19.1050    75.0960     2.4580 ha         1 Y5B       0.114000
     45 H8          21.0000    75.3880     0.8850 ha         1 Y5B       0.114000
     46 H9          11.5560    74.8390    -3.1600 ha         1 Y5B       0.135500
     47 H10         10.7870    76.2290     1.5090 ha         1 Y5B       0.131500
     48 H11         11.6410    78.1730     1.7690 ho         1 Y5B       0.479000
     49 H12         10.0130    71.1480    -4.3360 ha         1 Y5B       0.136500
     50 H13          9.1380    72.1660    -6.4180 ha         1 Y5B       0.122500
     51 H14          7.7650    74.2220    -6.3060 ha         1 Y5B       0.119000
     52 H15          7.2570    75.2610    -4.1170 ha         1 Y5B       0.122500
     53 H16          8.1330    74.2460    -2.0350 ha         1 Y5B       0.136500
     54 H17         12.3450    71.2620    -2.3920 h1         1 Y5B       0.064700
     55 H18         12.2130    72.7180    -3.3760 h1         1 Y5B       0.064700
     56 H19         18.4970    74.1090    -2.3450 ha         1 Y5B       0.113000
     57 H20         11.5210    77.2030    -2.6130 ha         1 Y5B       0.131500
     58 H21         10.8830    73.8450     0.9460 ha         1 Y5B       0.135500
     59 N15         11.2970    72.7810    -1.4420 nh         1 Y5B      -0.754300
     60 H1          14.1760    73.9510    -3.6160 ha         1 Y5B       0.116500
@<TRIPOS>BOND
     1     1     2 1   
     2     1    16 1   
     3     1    27 1   
     4     1    29 1   
     5     2    30 1   
     6     2    31 1   
     7     2    32 1   
     8     3     6 ar  
     9     3     9 ar  
    10     3    60 1   
    11     4    11 ar  
    12     4    12 ar  
    13     4    39 1   
    14     5     8 ar  
    15     5    10 ar  
    16     5    40 1   
    17     6     8 ar  
    18     6    23 1   
    19     7    13 ar  
    20     7    24 ar  
    21     7    41 1   
    22     8    42 1   
    23     9    10 ar  
    24     9    43 1   
    25    10    11 1   
    26    11    24 ar  
    27    12    13 ar  
    28    12    44 1   
    29    13    45 1   
    30    14    25 ar  
    31    14    26 ar  
    32    14    46 1   
    33    15    27 ar  
    34    15    28 ar  
    35    15    47 1   
    36    16    48 1   
    37    17    18 ar  
    38    17    22 ar  
    39    17    38 1   
    40    18    19 ar  
    41    18    49 1   
    42    19    20 ar  
    43    19    50 1   
    44    20    21 ar  
    45    20    51 1   
    46    21    22 ar  
    47    21    52 1   
    48    22    53 1   
    49    23    54 1   
    50    23    55 1   
    51    23    59 1   
    52    24    56 1   
    53    25    28 ar  
    54    25    59 1   
    55    26    27 ar  
    56    26    57 1   
    57    28    58 1   
    58    29    33 1   
    59    29    34 1   
    60    29    35 1   
    61    36    38 2   
    62    37    38 2   
    63    38    59 1   
@<TRIPOS>SUBSTRUCTURE
     1 Y5B         1 TEMP              0 ****  ****    0 ROOT
