@<TRIPOS>MOLECULE
Y5B
   60    63     1     0     0
SMALL
No Charge or Current Charge


@<TRIPOS>ATOM
      1 C33         11.2920    78.1580    -0.2520 c3         1 Y5B       0.120300
      2 C34          9.8210    78.7110    -0.4130 c3         1 Y5B       0.293000
      3 C9          14.5600    72.9340    -2.5430 ca         1 Y5B      -0.089500
      4 C13         17.5390    75.0060     0.8160 ca         1 Y5B      -0.097500
      5 C18         15.2830    73.0560     0.1640 ca         1 Y5B      -0.103000
      6 C19         13.7040    72.3850    -1.5710 ca         1 Y5B      -0.097300
      7 C1          19.8030    74.8020    -0.8300 ca         1 Y5B      -0.111000
      8 C2          14.0750    72.4470    -0.2150 ca         1 Y5B      -0.089500
      9 C10         15.7690    73.5420    -2.1620 ca         1 Y5B      -0.103000
     10 C11         16.1560    73.6180    -0.8000 cp         1 Y5B      -0.020000
     11 C12         17.4400    74.2740    -0.3950 cp         1 Y5B      -0.039000
     12 C14         18.7440    75.6230     1.1960 ca         1 Y5B      -0.111000
     13 C15         19.8770    75.5210     0.3730 ca         1 Y5B      -0.104000
     14 C24         11.6700    74.7740    -2.1540 ca         1 Y5B      -0.096000
     15 C27         10.8530    75.6950     0.3550 ca         1 Y5B      -0.069500
     16 O42         11.6800    78.2700     1.1410 oh         1 Y5B      -0.620000
     17 C01          9.1480    72.9580    -3.1530 ca         1 Y5B      -0.316500
     18 C02          9.5370    72.7190    -4.4880 ca         1 Y5B      -0.014500
     19 C03          9.1700    73.6250    -5.4980 ca         1 Y5B      -0.129500
     20 C04          8.4200    74.7710    -5.1830 ca         1 Y5B      -0.055000
     21 C05          8.0340    75.0120    -3.8530 ca         1 Y5B      -0.129500
     22 C06          8.3950    74.1090    -2.8380 ca         1 Y5B      -0.014500
     23 C16         12.3750    71.7490    -1.9740 c3         1 Y5B       0.253100
     24 C17         18.5980    74.1860    -1.2100 ca         1 Y5B      -0.097500
     25 C23         11.2280    73.8490    -1.1940 ca         1 Y5B       0.262000
     26 C25         11.7020    76.1490    -1.8690 ca         1 Y5B      -0.069500
     27 C26         11.3020    76.6390    -0.6020 ca         1 Y5B      -0.145300
     28 C28         10.8240    74.3210     0.0620 ca         1 Y5B      -0.096000
     29 C38         12.3270    79.0210    -1.0900 c3         1 Y5B       0.293000
     30 F35          9.7430    80.0360    -0.1460 f          1 Y5B      -0.096000
     31 F36          8.9620    78.0860     0.4270 f          1 Y5B      -0.096000
     32 F37          9.3530    78.5200    -1.6700 f          1 Y5B      -0.096000
     33 F39         13.5490    78.4370    -1.1020 f          1 Y5B      -0.096000
     34 F40         11.9450    79.1980    -2.3770 f          1 Y5B      -0.096000
     35 F41         12.4910    80.2570    -0.5580 f          1 Y5B      -0.096000
     36 O13          8.8080    72.0230    -0.6670 o          1 Y5B      -0.535500
     37 O14          9.8700    70.4900    -2.4260 o          1 Y5B      -0.535500
     38 S12          9.6560    71.8230    -1.8480 sy         1 Y5B       1.183600
     39 H2          16.6710    75.1090     1.4610 ha         1 Y5B       0.113000
     40 H3          15.5470    73.0830     1.2180 ha         1 Y5B       0.117500
     41 H4          20.6810    74.7190    -1.4680 ha         1 Y5B       0.114000
     42 H5          13.4190    72.0290     0.5460 ha         1 Y5B       0.116500
     43 H6          16.4030    73.9740    -2.9320 ha         1 Y5B       0.117500
     44 H7          18.7980    76.1820     2.1280 ha         1 Y5B       0.114000
     45 H8          20.8090    75.9980     0.6670 ha         1 Y5B       0.114000
     46 H9          11.9720    74.4230    -3.1360 ha         1 Y5B       0.135500
     47 H10         10.5140    76.0180     1.3370 ha         1 Y5B       0.131500
     48 H11         12.5140    77.7620     1.2510 ho         1 Y5B       0.479000
     49 H12         10.1270    71.8400    -4.7450 ha         1 Y5B       0.136500
     50 H13          9.4710    73.4400    -6.5270 ha         1 Y5B       0.122500
     51 H14          8.1400    75.4710    -5.9670 ha         1 Y5B       0.119000
     52 H15          7.4580    75.9010    -3.6080 ha         1 Y5B       0.122500
     53 H16          8.0980    74.3150    -1.8110 ha         1 Y5B       0.136500
     54 H17         12.3660    70.7250    -1.5760 h1         1 Y5B       0.064700
     55 H18         12.3350    71.6670    -3.0690 h1         1 Y5B       0.064700
     56 H19         18.5670    73.6230    -2.1400 ha         1 Y5B       0.113000
     57 H20         12.0340    76.8120    -2.6600 ha         1 Y5B       0.131500
     58 H21         10.4830    73.6180     0.8160 ha         1 Y5B       0.135500
     59 N15         11.1870    72.4740    -1.4900 nh         1 Y5B      -0.754300
     60 H1          14.2870    72.9010    -3.5950 ha         1 Y5B       0.116500
@<TRIPOS>BOND
     1     1     2 1   
     2     1    16 1   
     3     1    27 1   
     4     1    29 1   
     5     2    30 1   
     6     2    31 1   
     7     2    32 1   
     8     3     6 ar  
     9     3     9 ar  
    10     3    60 1   
    11     4    11 ar  
    12     4    12 ar  
    13     4    39 1   
    14     5     8 ar  
    15     5    10 ar  
    16     5    40 1   
    17     6     8 ar  
    18     6    23 1   
    19     7    13 ar  
    20     7    24 ar  
    21     7    41 1   
    22     8    42 1   
    23     9    10 ar  
    24     9    43 1   
    25    10    11 1   
    26    11    24 ar  
    27    12    13 ar  
    28    12    44 1   
    29    13    45 1   
    30    14    25 ar  
    31    14    26 ar  
    32    14    46 1   
    33    15    27 ar  
    34    15    28 ar  
    35    15    47 1   
    36    16    48 1   
    37    17    18 ar  
    38    17    22 ar  
    39    17    38 1   
    40    18    19 ar  
    41    18    49 1   
    42    19    20 ar  
    43    19    50 1   
    44    20    21 ar  
    45    20    51 1   
    46    21    22 ar  
    47    21    52 1   
    48    22    53 1   
    49    23    54 1   
    50    23    55 1   
    51    23    59 1   
    52    24    56 1   
    53    25    28 ar  
    54    25    59 1   
    55    26    27 ar  
    56    26    57 1   
    57    28    58 1   
    58    29    33 1   
    59    29    34 1   
    60    29    35 1   
    61    36    38 2   
    62    37    38 2   
    63    38    59 1   
@<TRIPOS>SUBSTRUCTURE
     1 Y5B         1 TEMP              0 ****  ****    0 ROOT
