@<TRIPOS>MOLECULE
Y5C
   41    43     1     0     0
SMALL
No Charge or Current Charge


@<TRIPOS>ATOM
      1 C12        -39.3000    71.9620     2.6290 ca         1 Y5C      -0.168600
      2 C13        -38.1090    72.5680     3.0780 ca         1 Y5C       0.190000
      3 C14        -39.4260    70.5580     2.7200 ca         1 Y5C      -0.076000
      4 C15        -37.0690    71.7890     3.6150 ca         1 Y5C      -0.189000
      5 C16        -38.3860    69.7830     3.2600 ca         1 Y5C      -0.162000
      6 C17        -40.4190    72.7840     2.0540 c          1 Y5C       0.722600
      7 C2         -39.1040    64.5290     3.4920 cc         1 Y5C       0.695800
      8 C20        -35.1650    66.8940     5.8760 c3         1 Y5C       0.065600
      9 C21        -35.2290    68.3380     6.4380 c3         1 Y5C      -0.091400
     10 C22        -36.3070    69.2470     5.7950 c3         1 Y5C      -0.073400
     11 C24        -37.2020    70.3920     3.7110 ca         1 Y5C      -0.081300
     12 C4         -36.9890    65.6300     3.4200 c          1 Y5C       0.621600
     13 C5         -38.2410    65.2570     6.8180 cc         1 Y5C      -0.193000
     14 C6         -37.0870    65.9030     7.1810 cd         1 Y5C      -0.151000
     15 C8         -37.1690    65.6720     4.8660 cc         1 Y5C      -0.314600
     16 C9         -38.2610    65.1400     5.4720 cd         1 Y5C       0.180400
     17 F25        -37.9310    73.9040     2.9770 f          1 Y5C      -0.175000
     18 N1         -39.3010    64.5280     4.7930 nd         1 Y5C      -0.671100
     19 N11        -40.0470    63.9700     2.7480 nv         1 Y5C      -1.030200
     20 N3         -38.0410    65.0300     2.8190 ns         1 Y5C      -0.437400
     21 N7         -36.4440    66.1620     5.9590 na         1 Y5C       0.060000
     22 O18        -40.7960    73.7720     2.6670 o          1 Y5C      -0.711500
     23 O19        -40.9550    72.3820     1.0310 o          1 Y5C      -0.711500
     24 H1         -40.3370    70.0710     2.3770 ha         1 Y5C       0.128000
     25 H2         -36.1590    72.2760     3.9540 ha         1 Y5C       0.101000
     26 H3         -38.5020    68.7030     3.3280 ha         1 Y5C       0.096000
     27 H4         -34.4130    66.3270     6.4390 h1         1 Y5C       0.066700
     28 H5         -34.8290    66.9250     4.8340 h1         1 Y5C       0.066700
     29 H6         -35.4170    68.2870     7.5170 hc         1 Y5C       0.038200
     30 H7         -34.2450    68.8070     6.3190 hc         1 Y5C       0.038200
     31 H8         -36.3320    70.1980     6.3400 hc         1 Y5C       0.049700
     32 H9         -37.2970    68.7910     5.9270 hc         1 Y5C       0.049700
     33 H10        -36.0060    68.6070     3.7390 hc         1 Y5C       0.041700
     34 H11        -35.1140    70.0520     4.1730 hc         1 Y5C       0.041700
     35 H12        -39.0100    64.8980     7.4950 ha         1 Y5C       0.141000
     36 H13        -36.6930    66.1920     8.1490 h4         1 Y5C       0.138000
     37 H14        -40.8990    63.7710     3.2580 hn         1 Y5C       0.487000
     38 H15        -40.1780    64.3330     1.8120 hn         1 Y5C       0.487000
     39 H16        -37.9960    64.9350     1.8190 hn         1 Y5C       0.327500
     40 C23        -36.0800    69.5470     4.2970 c3         1 Y5C      -0.027100
     41 O10        -36.0300    66.0570     2.8000 o          1 Y5C      -0.571000
@<TRIPOS>BOND
     1     1     2 ar  
     2     1     3 ar  
     3     1     6 1   
     4     2     4 ar  
     5     2    17 1   
     6     3     5 ar  
     7     3    24 1   
     8     4    11 ar  
     9     4    25 1   
    10     5    11 ar  
    11     5    26 1   
    12     6    22 1   
    13     6    23 1   
    14     7    18 2   
    15     7    19 1   
    16     7    20 1   
    17     8     9 1   
    18     8    21 1   
    19     8    27 1   
    20     8    28 1   
    21     9    10 1   
    22     9    29 1   
    23     9    30 1   
    24    10    31 1   
    25    10    32 1   
    26    10    40 1   
    27    11    40 1   
    28    12    15 1   
    29    12    20 1   
    30    12    41 2   
    31    13    14 2   
    32    13    16 1   
    33    13    35 1   
    34    14    21 1   
    35    14    36 1   
    36    15    16 2   
    37    15    21 1   
    38    16    18 1   
    39    19    37 1   
    40    19    38 1   
    41    20    39 1   
    42    33    40 1   
    43    34    40 1   
@<TRIPOS>SUBSTRUCTURE
     1 Y5C         1 TEMP              0 ****  ****    0 ROOT
