@<TRIPOS>MOLECULE
Y5C
   41    43     1     0     0
SMALL
abcg2


@<TRIPOS>ATOM
      1 C12        -39.4430    71.1690     2.5980 ca         1 Y5C      -0.168600
      2 C13        -38.2070    71.8030     2.5890 ca         1 Y5C       0.190000
      3 C14        -39.4980    69.9830     3.3340 ca         1 Y5C      -0.076000
      4 C15        -37.0980    71.3100     3.2600 ca         1 Y5C      -0.189000
      5 C16        -38.4080    69.4710     4.0140 ca         1 Y5C      -0.162000
      6 C17        -40.7030    71.6680     1.8830 c          1 Y5C       0.722600
      7 C2         -39.2710    65.5610     3.1960 cc         1 Y5C       0.695800
      8 C20        -35.0140    66.8130     5.9330 c3         1 Y5C       0.065600
      9 C21        -35.0650    68.1820     6.6160 c3         1 Y5C      -0.091400
     10 C22        -36.1540    69.1160     6.0960 c3         1 Y5C      -0.073400
     11 C24        -37.1780    70.1280     3.9840 ca         1 Y5C      -0.081300
     12 C4         -36.9070    66.1970     3.4170 c          1 Y5C       0.621600
     13 C5         -38.2930    65.4390     6.6650 cc         1 Y5C      -0.193000
     14 C6         -37.0110    65.8120     7.0000 cd         1 Y5C      -0.151000
     15 C8         -37.1510    66.0320     4.8100 cc         1 Y5C      -0.314600
     16 C9         -38.3940    65.5850     5.2640 cd         1 Y5C       0.180400
     17 F25        -38.0110    72.9340     1.8930 f          1 Y5C      -0.175000
     18 N1         -39.4700    65.3560     4.4610 nd         1 Y5C      -0.671100
     19 N11        -40.2590    65.3350     2.2950 nv         1 Y5C      -1.030200
     20 N3         -38.0640    65.9540     2.6830 ns         1 Y5C      -0.437400
     21 N7         -36.3150    66.1620     5.8940 na         1 Y5C       0.060000
     22 O18        -40.6940    72.8330     1.4510 o          1 Y5C      -0.711500
     23 O19        -41.6350    70.8440     1.8100 o          1 Y5C      -0.711500
     24 H1         -40.4380    69.4470     3.3640 ha         1 Y5C       0.128000
     25 H2         -36.1620    71.8540     3.1990 ha         1 Y5C       0.101000
     26 H3         -38.5180    68.5450     4.5650 ha         1 Y5C       0.096000
     27 H4         -34.3180    66.1650     6.4680 h1         1 Y5C       0.066700
     28 H5         -34.6500    66.8890     4.9130 h1         1 Y5C       0.066700
     29 H6         -35.2090    68.0380     7.6900 hc         1 Y5C       0.038200
     30 H7         -34.0800    68.6420     6.5030 hc         1 Y5C       0.038200
     31 H8         -36.1850    70.0060     6.7280 hc         1 Y5C       0.049700
     32 H9         -37.1260    68.6340     6.2230 hc         1 Y5C       0.049700
     33 H10        -35.6410    68.6880     4.0390 hc         1 Y5C       0.041700
     34 H11        -35.1320    70.2600     4.5840 hc         1 Y5C       0.041700
     35 H12        -39.0590    65.1010     7.3450 ha         1 Y5C       0.141000
     36 H13        -36.5470    65.8590     7.9730 h4         1 Y5C       0.138000
     37 H14        -41.1830    65.2440     2.6850 hn         1 Y5C       0.487000
     38 H15        -40.2310    65.8150     1.4110 hn         1 Y5C       0.487000
     39 H16        -37.9700    66.0530     1.6800 hn         1 Y5C       0.327500
     40 C23        -35.9560    69.5440     4.6410 c3         1 Y5C      -0.027100
     41 O10        -35.8680    66.4990     2.8420 o          1 Y5C      -0.571000
@<TRIPOS>BOND
     1     1     2 ar  
     2     1     3 ar  
     3     1     6 1   
     4     2     4 ar  
     5     2    17 1   
     6     3     5 ar  
     7     3    24 1   
     8     4    11 ar  
     9     4    25 1   
    10     5    11 ar  
    11     5    26 1   
    12     6    22 1   
    13     6    23 1   
    14     7    18 2   
    15     7    19 1   
    16     7    20 1   
    17     8     9 1   
    18     8    21 1   
    19     8    27 1   
    20     8    28 1   
    21     9    10 1   
    22     9    29 1   
    23     9    30 1   
    24    10    31 1   
    25    10    32 1   
    26    10    40 1   
    27    11    40 1   
    28    12    15 1   
    29    12    20 1   
    30    12    41 2   
    31    13    14 2   
    32    13    16 1   
    33    13    35 1   
    34    14    21 1   
    35    14    36 1   
    36    15    16 2   
    37    15    21 1   
    38    16    18 1   
    39    19    37 1   
    40    19    38 1   
    41    20    39 1   
    42    33    40 1   
    43    34    40 1   
@<TRIPOS>SUBSTRUCTURE
     1 Y5C         1 TEMP              0 ****  ****    0 ROOT
