@<TRIPOS>MOLECULE
Y5D
   73    78     1     0     0
SMALL
No Charge or Current Charge


@<TRIPOS>ATOM
      1 C10         11.8520   -16.6770     5.4980 cc         1 Y5D      -0.106000
      2 C13         10.3310   -19.4280     5.8920 ca         1 Y5D      -0.228800
      3 C15         11.6800   -21.3240     5.9360 cc         1 Y5D      -0.164100
      4 C17          9.5100   -20.5290     5.9450 ca         1 Y5D       0.178500
      5 C21          5.4030   -18.0030     5.9670 ca         1 Y5D       0.350000
      6 C22          4.1680   -18.1430     6.6160 ca         1 Y5D      -0.191000
      7 C24          3.4630   -15.9390     5.8310 ca         1 Y5D      -0.143300
      8 C26          2.1490   -14.1790     7.1660 c6         1 Y5D      -0.066400
      9 C04         14.2070   -15.1050     4.1550 cy         1 Y5D       0.214800
     10 C05         13.2550   -14.5570     5.2890 cy         1 Y5D       0.083000
     11 C06         13.9230   -14.2400     6.6610 c3         1 Y5D      -0.015300
     12 C07         14.4010   -15.4510     7.3390 c1         1 Y5D       0.290900
     13 C11         10.5230   -16.8670     5.7780 cd         1 Y5D      -0.275500
     14 C12          9.7690   -18.1310     5.8760 ca         1 Y5D       0.312500
     15 C14         11.6850   -19.9420     5.8980 cd         1 Y5D      -0.198200
     16 C19          7.7010   -19.1510     5.9690 ca         1 Y5D       0.409900
     17 C23          3.2060   -17.1200     6.5570 ca         1 Y5D      -0.056000
     18 C25          2.4020   -14.8200     5.7710 c6         1 Y5D      -0.001400
     19 C27          0.8690   -13.2940     7.2120 c6         1 Y5D       0.167300
     20 C30          0.0070   -14.1630     5.0720 c6         1 Y5D       0.167300
     21 C31          1.0570   -15.3080     5.1720 c6         1 Y5D      -0.066400
     22 C32          4.7040   -15.8150     5.1670 ca         1 Y5D       0.196000
     23 C34          5.6600   -16.8380     5.2300 ca         1 Y5D      -0.182000
     24 C36          9.9650   -15.5770     5.9320 cd         1 Y5D       0.307900
     25 C38         13.1520   -13.3320     4.3040 cy         1 Y5D       0.214800
     26 C40         15.1490   -10.5340     3.2480 c3         1 Y5D      -0.064100
     27 F33          4.9960   -14.7070     4.4480 f          1 Y5D      -0.187000
     28 N03         14.5500   -13.6780     3.9120 nq         1 Y5D      -0.781500
     29 N08         14.7780   -16.4280     7.8490 n1         1 Y5D      -0.442000
     30 N09         12.0120   -15.2940     5.5170 na         1 Y5D       0.105800
     31 N16         10.3110   -21.6590     5.9600 na         1 Y5D      -0.339400
     32 N18          8.1740   -20.4100     5.9900 nb         1 Y5D      -0.272000
     33 N20          6.3190   -19.0540     6.0510 nu         1 Y5D      -0.932900
     34 N28          0.3780   -12.9470     5.8530 n3         1 Y5D      -0.722600
     35 N35          8.4250   -18.0140     5.9250 nb         1 Y5D      -0.260000
     36 N37         10.8470   -14.6090     5.7870 nc         1 Y5D      -0.531800
     37 S02         15.1380   -13.2140     2.3690 s6         1 Y5D       1.207100
     38 H101        12.6650   -17.3540     5.2780 h4         1 Y5D       0.162000
     39 H151        12.4890   -22.0530     5.9610 h4         1 Y5D       0.220000
     40 H221         3.9510   -19.0440     7.1820 ha         1 Y5D       0.115000
     41 H261         2.0650   -14.9530     7.9400 hc         1 Y5D       0.043450
     42 H262         3.0220   -13.5720     7.4410 hc         1 Y5D       0.043450
     43 H042        13.6700   -15.6040     3.3370 h1         1 Y5D       0.085700
     44 H041        15.0280   -15.7450     4.4980 h1         1 Y5D       0.085700
     45 H061        14.7780   -13.5660     6.5360 hc         1 Y5D       0.095200
     46 H062        13.2170   -13.7240     7.3210 hc         1 Y5D       0.095200
     47 H141        12.5990   -19.3570     5.9140 ha         1 Y5D       0.203000
     48 H231         2.2610   -17.2510     7.0800 ha         1 Y5D       0.115000
     49 H251         2.7640   -14.0190     5.1120 hc         1 Y5D       0.078700
     50 H272         1.0890   -12.3850     7.7900 h1         1 Y5D       0.030450
     51 H271         0.0830   -13.8360     7.7600 h1         1 Y5D       0.030450
     52 H291        -0.3660   -11.0220     6.3810 h1         1 Y5D       0.029700
     53 H293        -0.9860   -11.6590     4.8430 h1         1 Y5D       0.029700
     54 H292        -1.5890   -12.3150     6.3840 h1         1 Y5D       0.029700
     55 H302        -0.1120   -13.8890     4.0130 h1         1 Y5D       0.030450
     56 H301        -0.9650   -14.5540     5.4070 h1         1 Y5D       0.030450
     57 H312         0.6420   -16.1110     5.7950 hc         1 Y5D       0.043450
     58 H311         1.2220   -15.7450     4.1780 hc         1 Y5D       0.043450
     59 H341         6.5890   -16.7190     4.6860 ha         1 Y5D       0.163000
     60 H361         8.9360   -15.3190     6.1530 h4         1 Y5D       0.059100
     61 H382        13.0080   -12.3610     4.7910 h1         1 Y5D       0.085700
     62 H381        12.3890   -13.4680     3.5260 h1         1 Y5D       0.085700
     63 H392        16.8290   -11.9310     3.3790 h1         1 Y5D       0.101700
     64 H391        16.4610   -11.3860     1.7180 h1         1 Y5D       0.101700
     65 H402        15.7440    -9.6190     3.3590 hc         1 Y5D       0.050033
     66 H403        14.3070   -10.3120     2.5800 hc         1 Y5D       0.050033
     67 H401        14.7510   -10.7960     4.2360 hc         1 Y5D       0.050033
     68 H161         9.9430   -22.6050     5.9930 hn         1 Y5D       0.363000
     69 H201         5.8920   -19.9410     6.3130 hn         1 Y5D       0.509000
     70 C29         -0.6990   -11.9340     5.8670 c3         1 Y5D       0.155100
     71 C39         16.0260   -11.6770     2.6800 c3         1 Y5D      -0.303400
     72 O01         16.1090   -14.2400     1.9790 o          1 Y5D      -0.543000
     73 O41         13.9680   -12.9530     1.5250 o          1 Y5D      -0.543000
@<TRIPOS>BOND
     1     1    13 2   
     2     1    30 1   
     3     1    38 1   
     4     2     4 ar  
     5     2    14 ar  
     6     2    15 1   
     7     3    15 2   
     8     3    31 1   
     9     3    39 1   
    10     4    31 1   
    11     4    32 ar  
    12     5     6 ar  
    13     5    23 ar  
    14     5    33 1   
    15     6    17 ar  
    16     6    40 1   
    17     7    17 ar  
    18     7    18 1   
    19     7    22 ar  
    20     8    18 1   
    21     8    19 1   
    22     8    41 1   
    23     8    42 1   
    24     9    10 1   
    25     9    28 1   
    26     9    43 1   
    27     9    44 1   
    28    10    11 1   
    29    10    25 1   
    30    10    30 1   
    31    11    12 1   
    32    11    45 1   
    33    11    46 1   
    34    12    29 3   
    35    13    14 1   
    36    13    24 1   
    37    14    35 ar  
    38    15    47 1   
    39    16    32 ar  
    40    16    33 1   
    41    16    35 ar  
    42    17    48 1   
    43    18    21 1   
    44    18    49 1   
    45    19    34 1   
    46    19    50 1   
    47    19    51 1   
    48    20    21 1   
    49    20    34 1   
    50    20    55 1   
    51    20    56 1   
    52    21    57 1   
    53    21    58 1   
    54    22    23 ar  
    55    22    27 1   
    56    23    59 1   
    57    24    36 2   
    58    24    60 1   
    59    25    28 1   
    60    25    61 1   
    61    25    62 1   
    62    26    65 1   
    63    26    66 1   
    64    26    67 1   
    65    26    71 1   
    66    28    37 1   
    67    30    36 1   
    68    31    68 1   
    69    33    69 1   
    70    34    70 1   
    71    37    71 1   
    72    37    72 2   
    73    37    73 2   
    74    52    70 1   
    75    53    70 1   
    76    54    70 1   
    77    63    71 1   
    78    64    71 1   
@<TRIPOS>SUBSTRUCTURE
     1 Y5D         1 TEMP              0 ****  ****    0 ROOT
