@<TRIPOS>MOLECULE
Y5D
   73    78     1     0     0
SMALL
abcg2


@<TRIPOS>ATOM
      1 C10         11.8090   -16.4500     5.4450 cc         1 Y5D      -0.106000
      2 C13         10.4140   -19.2100     5.8670 ca         1 Y5D      -0.228800
      3 C15         11.6470   -21.0920     5.9140 cc         1 Y5D      -0.164100
      4 C17          9.5440   -20.3290     5.9760 ca         1 Y5D       0.178500
      5 C21          5.4580   -17.9110     6.0950 ca         1 Y5D       0.350000
      6 C22          4.0980   -18.2240     6.2630 ca         1 Y5D      -0.191000
      7 C24          3.4560   -15.8800     6.0630 ca         1 Y5D      -0.143300
      8 C26          1.6630   -14.6740     7.3870 c6         1 Y5D      -0.066400
      9 C04         14.2720   -14.9740     4.3880 cy         1 Y5D       0.214800
     10 C05         13.2060   -14.3610     5.3290 cy         1 Y5D       0.083000
     11 C06         13.7490   -13.9690     6.7120 c3         1 Y5D      -0.015300
     12 C07         14.0750   -15.1340     7.5230 c1         1 Y5D       0.290900
     13 C11         10.4750   -16.6920     5.7370 cd         1 Y5D      -0.275500
     14 C12          9.7750   -17.9640     5.8390 ca         1 Y5D       0.312500
     15 C14         11.7520   -19.7330     5.8330 cd         1 Y5D      -0.198200
     16 C19          7.7280   -19.0290     6.0260 ca         1 Y5D       0.409900
     17 C23          3.1370   -17.2310     6.2470 ca         1 Y5D      -0.056000
     18 C25          2.4030   -14.8000     6.0370 c6         1 Y5D      -0.001400
     19 C27          0.2960   -13.9910     7.2210 c6         1 Y5D       0.167300
     20 C30          0.4090   -13.8200     4.8220 c6         1 Y5D       0.167300
     21 C31          1.3720   -15.0140     4.9210 c6         1 Y5D      -0.066400
     22 C32          4.8070   -15.6170     5.9010 ca         1 Y5D       0.196000
     23 C34          5.8100   -16.5720     5.9110 ca         1 Y5D      -0.182000
     24 C36          9.9200   -15.3990     5.9150 cd         1 Y5D       0.307900
     25 C38         13.1350   -13.1500     4.3720 cy         1 Y5D       0.214800
     26 C40         15.8710   -10.9760     2.8890 c3         1 Y5D      -0.064100
     27 F33          5.2080   -14.3240     5.7170 f          1 Y5D      -0.187000
     28 N03         14.3940   -13.6370     3.7580 nq         1 Y5D      -0.781500
     29 N08         14.3230   -16.0710     8.1420 n1         1 Y5D      -0.442000
     30 N09         11.9760   -15.1110     5.4520 na         1 Y5D       0.105800
     31 N16         10.3110   -21.4530     5.9970 na         1 Y5D      -0.339400
     32 N18          8.2210   -20.2790     6.0530 nb         1 Y5D      -0.272000
     33 N20          6.3560   -18.9730     6.1180 nu         1 Y5D      -0.932900
     34 N28          0.3210   -13.0790     6.0840 n3         1 Y5D      -0.722600
     35 N35          8.4340   -17.8980     5.9240 nb         1 Y5D      -0.260000
     36 N37         10.8300   -14.4520     5.7540 nc         1 Y5D      -0.531800
     37 S02         14.7940   -13.4170     2.1740 s6         1 Y5D       1.207100
     38 H101        12.6240   -17.1140     5.2220 h4         1 Y5D       0.162000
     39 H151        12.4140   -21.8480     5.9200 h4         1 Y5D       0.220000
     40 H221         3.8040   -19.2570     6.4070 ha         1 Y5D       0.115000
     41 H261         1.5150   -15.6650     7.8220 hc         1 Y5D       0.043450
     42 H262         2.2880   -14.1090     8.0820 hc         1 Y5D       0.043450
     43 H042        13.8650   -15.7280     3.7170 h1         1 Y5D       0.085700
     44 H041        15.1860   -15.3330     4.8550 h1         1 Y5D       0.085700
     45 H061        14.6490   -13.3640     6.5910 hc         1 Y5D       0.095200
     46 H062        13.0060   -13.3680     7.2390 hc         1 Y5D       0.095200
     47 H141        12.6790   -19.1910     5.7670 ha         1 Y5D       0.203000
     48 H231         2.0990   -17.5110     6.3810 ha         1 Y5D       0.115000
     49 H251         2.9040   -13.8520     5.8410 hc         1 Y5D       0.078700
     50 H272         0.0500   -13.4210     8.1180 h1         1 Y5D       0.030450
     51 H271        -0.4990   -14.7480     7.1010 h1         1 Y5D       0.030450
     52 H291        -0.8220   -11.5800     6.9940 h1         1 Y5D       0.029700
     53 H293        -0.7140   -11.4760     5.2290 h1         1 Y5D       0.029700
     54 H292        -1.7730   -12.6880     5.9770 h1         1 Y5D       0.029700
     55 H302         0.7410   -13.1230     4.0470 h1         1 Y5D       0.030450
     56 H301        -0.5880   -14.1850     4.5210 h1         1 Y5D       0.030450
     57 H312         0.8120   -15.9290     5.1280 hc         1 Y5D       0.043450
     58 H311         1.8740   -15.1640     3.9630 hc         1 Y5D       0.043450
     59 H341         6.8370   -16.2810     5.7740 ha         1 Y5D       0.163000
     60 H361         8.9020   -15.1420     6.1540 h4         1 Y5D       0.059100
     61 H382        13.2120   -12.1640     4.8250 h1         1 Y5D       0.085700
     62 H381        12.2800   -13.2020     3.7010 h1         1 Y5D       0.085700
     63 H392        16.9650   -12.8610     2.7750 h1         1 Y5D       0.101700
     64 H391        16.4980   -12.2030     1.1960 h1         1 Y5D       0.101700
     65 H402        16.7650   -10.3530     2.8760 hc         1 Y5D       0.050033
     66 H403        15.0810   -10.4540     2.3490 hc         1 Y5D       0.050033
     67 H401        15.5630   -11.1070     3.9260 hc         1 Y5D       0.050033
     68 H161         9.9590   -22.3940     6.0770 hn         1 Y5D       0.363000
     69 H201         5.9370   -19.8850     6.2150 hn         1 Y5D       0.509000
     70 C29         -0.8050   -12.1640     6.0720 c3         1 Y5D       0.155100
     71 C39         16.1920   -12.3130     2.2380 c3         1 Y5D      -0.303400
     72 O01         15.2490   -14.6930     1.6620 o          1 Y5D      -0.543000
     73 O41         13.7000   -12.7390     1.5080 o          1 Y5D      -0.543000
@<TRIPOS>BOND
     1     1    13 2   
     2     1    30 1   
     3     1    38 1   
     4     2     4 ar  
     5     2    14 ar  
     6     2    15 1   
     7     3    15 2   
     8     3    31 1   
     9     3    39 1   
    10     4    31 1   
    11     4    32 ar  
    12     5     6 ar  
    13     5    23 ar  
    14     5    33 1   
    15     6    17 ar  
    16     6    40 1   
    17     7    17 ar  
    18     7    18 1   
    19     7    22 ar  
    20     8    18 1   
    21     8    19 1   
    22     8    41 1   
    23     8    42 1   
    24     9    10 1   
    25     9    28 1   
    26     9    43 1   
    27     9    44 1   
    28    10    11 1   
    29    10    25 1   
    30    10    30 1   
    31    11    12 1   
    32    11    45 1   
    33    11    46 1   
    34    12    29 3   
    35    13    14 1   
    36    13    24 1   
    37    14    35 ar  
    38    15    47 1   
    39    16    32 ar  
    40    16    33 1   
    41    16    35 ar  
    42    17    48 1   
    43    18    21 1   
    44    18    49 1   
    45    19    34 1   
    46    19    50 1   
    47    19    51 1   
    48    20    21 1   
    49    20    34 1   
    50    20    55 1   
    51    20    56 1   
    52    21    57 1   
    53    21    58 1   
    54    22    23 ar  
    55    22    27 1   
    56    23    59 1   
    57    24    36 2   
    58    24    60 1   
    59    25    28 1   
    60    25    61 1   
    61    25    62 1   
    62    26    65 1   
    63    26    66 1   
    64    26    67 1   
    65    26    71 1   
    66    28    37 1   
    67    30    36 1   
    68    31    68 1   
    69    33    69 1   
    70    34    70 1   
    71    37    71 1   
    72    37    72 2   
    73    37    73 2   
    74    52    70 1   
    75    53    70 1   
    76    54    70 1   
    77    63    71 1   
    78    64    71 1   
@<TRIPOS>SUBSTRUCTURE
     1 Y5D         1 TEMP              0 ****  ****    0 ROOT
