@<TRIPOS>MOLECULE
Y5E
   44    45     1     0     0
SMALL
No Charge or Current Charge


@<TRIPOS>ATOM
      1 C10        137.6680   131.8840   172.4130 c3         1 Y5E       0.151800
      2 C13        137.4670   129.4580   172.0150 c3         1 Y5E       0.148600
      3 C15        136.9350   135.7720   174.3240 ca         1 Y5E      -0.235000
      4 C17        138.4620   137.1350   175.5750 ca         1 Y5E      -0.226000
      5 C20        136.3970   135.8980   169.9460 ca         1 Y5E      -0.066500
      6 C21        135.7330   137.0270   169.4360 ca         1 Y5E      -0.170000
      7 C01        134.4360   139.4240   168.4170 c3         1 Y5E       0.148900
      8 C03        136.3140   138.3070   169.5640 ca         1 Y5E       0.136100
      9 C04        137.5570   138.4400   170.2030 ca         1 Y5E      -0.170000
     10 C05        138.2210   137.3110   170.7130 ca         1 Y5E      -0.066500
     11 C06        137.6440   136.0330   170.5860 ca         1 Y5E      -0.130300
     12 C07        138.3570   134.8060   171.1460 c3         1 Y5E       0.288100
     13 C09        136.9770   133.2660   172.6100 c3         1 Y5E       0.229800
     14 C12        136.0320   130.5160   173.7030 c3         1 Y5E       0.148600
     15 C14        138.0280   135.3390   173.5520 ca         1 Y5E       0.620900
     16 C16        137.1500   136.6900   175.3610 ca         1 Y5E      -0.037000
     17 C18        139.4930   136.6520   174.7530 ca         1 Y5E       0.386900
     18 N08        137.8890   134.4320   172.4970 nh         1 Y5E      -0.795300
     19 N11        136.7650   130.6950   172.4260 n3         1 Y5E      -0.717600
     20 N19        139.2850   135.7680   173.7540 nb         1 Y5E      -0.745000
     21 H1         138.4360   131.7740   173.1900 h1         1 Y5E       0.041700
     22 H2         138.1970   131.9150   171.4510 h1         1 Y5E       0.041700
     23 H3         136.7660   128.6150   171.9530 h1         1 Y5E       0.032367
     24 H4         137.9300   129.5840   171.0280 h1         1 Y5E       0.032367
     25 H5         138.2550   129.1980   172.7350 h1         1 Y5E       0.032367
     26 H6         135.9330   135.4150   174.1100 ha         1 Y5E       0.121000
     27 H7         138.6850   137.8470   176.3640 ha         1 Y5E       0.122000
     28 H8         135.9400   134.9150   169.8460 ha         1 Y5E       0.112000
     29 H9         134.7720   136.8890   168.9490 ha         1 Y5E       0.119500
     30 H10        134.1410   140.4370   168.1190 h1         1 Y5E       0.039367
     31 H11        134.4830   138.8040   167.5120 h1         1 Y5E       0.039367
     32 H12        133.6570   139.0230   169.0780 h1         1 Y5E       0.039367
     33 H13        138.0080   139.4240   170.3060 ha         1 Y5E       0.119500
     34 H14        139.1820   137.4300   171.2100 ha         1 Y5E       0.112000
     35 H15        138.2060   133.9730   170.4460 h1         1 Y5E       0.060700
     36 H16        139.4400   134.9920   171.1630 h1         1 Y5E       0.060700
     37 H17        136.1680   133.3630   171.8740 h1         1 Y5E       0.045700
     38 H18        136.5060   133.2630   173.6000 h1         1 Y5E       0.045700
     39 H19        135.3940   131.3820   173.9200 h1         1 Y5E       0.032367
     40 H20        135.3820   129.6320   173.6560 h1         1 Y5E       0.032367
     41 H21        136.7310   130.3820   174.5400 h1         1 Y5E       0.032367
     42 H22        136.3260   137.0490   175.9750 ha         1 Y5E       0.111000
     43 H23        140.5200   136.9860   174.8990 h4         1 Y5E       0.013100
     44 O02        135.7100   139.4520   169.0850 os         1 Y5E      -0.343100
@<TRIPOS>BOND
     1     1    13 1   
     2     1    19 1   
     3     1    21 1   
     4     1    22 1   
     5     2    19 1   
     6     2    23 1   
     7     2    24 1   
     8     2    25 1   
     9     3    15 ar  
    10     3    16 ar  
    11     3    26 1   
    12     4    16 ar  
    13     4    17 ar  
    14     4    27 1   
    15     5     6 ar  
    16     5    11 ar  
    17     5    28 1   
    18     6     8 ar  
    19     6    29 1   
    20     7    30 1   
    21     7    31 1   
    22     7    32 1   
    23     7    44 1   
    24     8     9 ar  
    25     8    44 1   
    26     9    10 ar  
    27     9    33 1   
    28    10    11 ar  
    29    10    34 1   
    30    11    12 1   
    31    12    18 1   
    32    12    35 1   
    33    12    36 1   
    34    13    18 1   
    35    13    37 1   
    36    13    38 1   
    37    14    19 1   
    38    14    39 1   
    39    14    40 1   
    40    14    41 1   
    41    15    18 1   
    42    15    20 ar  
    43    16    42 1   
    44    17    20 ar  
    45    17    43 1   
@<TRIPOS>SUBSTRUCTURE
     1 Y5E         1 TEMP              0 ****  ****    0 ROOT
