@<TRIPOS>MOLECULE
Y5E
   44    45     1     0     0
SMALL
abcg2


@<TRIPOS>ATOM
      1 C10        137.3310   132.3990   172.0620 c3         1 Y5E       0.151800
      2 C13        136.2710   130.5400   170.9870 c3         1 Y5E       0.148600
      3 C15        137.0250   135.3460   175.2180 ca         1 Y5E      -0.235000
      4 C17        137.7390   137.4920   176.0250 ca         1 Y5E      -0.226000
      5 C20        136.5770   135.9860   170.8790 ca         1 Y5E      -0.066500
      6 C21        135.9450   136.8300   169.9690 ca         1 Y5E      -0.170000
      7 C01        134.7920   138.5760   168.0860 c3         1 Y5E       0.148900
      8 C03        136.7040   137.5960   169.0900 ca         1 Y5E       0.136100
      9 C04        138.0970   137.5030   169.1410 ca         1 Y5E      -0.170000
     10 C05        138.7040   136.6620   170.0540 ca         1 Y5E      -0.066500
     11 C06        137.9590   135.8840   170.9390 ca         1 Y5E      -0.130300
     12 C07        138.6720   134.9520   171.8920 c3         1 Y5E       0.288100
     13 C09        137.1130   133.4120   173.1790 c3         1 Y5E       0.229800
     14 C12        136.9110   130.3520   173.2690 c3         1 Y5E       0.148600
     15 C14        137.8310   135.5470   174.0770 ca         1 Y5E       0.620900
     16 C16        136.9920   136.3290   176.1850 ca         1 Y5E      -0.037000
     17 C18        138.4900   137.5980   174.8700 ca         1 Y5E       0.386900
     18 N08        137.9330   134.6090   173.0870 nh         1 Y5E      -0.795300
     19 N11        136.4520   131.2550   172.2330 n3         1 Y5E      -0.717600
     20 N19        138.5380   136.6690   173.9250 nb         1 Y5E      -0.745000
     21 H1         138.3880   132.0910   172.0130 h1         1 Y5E       0.041700
     22 H2         137.0890   132.8620   171.1020 h1         1 Y5E       0.041700
     23 H3         135.5620   129.7230   171.1290 h1         1 Y5E       0.032367
     24 H4         135.8620   131.2050   170.2250 h1         1 Y5E       0.032367
     25 H5         137.2030   130.1070   170.5920 h1         1 Y5E       0.032367
     26 H6         136.4360   134.4510   175.3490 ha         1 Y5E       0.121000
     27 H7         137.7340   138.2820   176.7620 ha         1 Y5E       0.122000
     28 H8         135.9570   135.4070   171.5530 ha         1 Y5E       0.112000
     29 H9         134.8640   136.8750   169.9660 ha         1 Y5E       0.119500
     30 H10        134.5970   139.3000   167.2990 h1         1 Y5E       0.039367
     31 H11        134.3080   137.6320   167.8210 h1         1 Y5E       0.039367
     32 H12        134.3540   138.9450   169.0180 h1         1 Y5E       0.039367
     33 H13        138.6970   138.1030   168.4660 ha         1 Y5E       0.119500
     34 H14        139.7870   136.6140   170.0820 ha         1 Y5E       0.112000
     35 H15        138.9380   134.0330   171.3710 h1         1 Y5E       0.060700
     36 H16        139.6200   135.4070   172.1810 h1         1 Y5E       0.060700
     37 H17        136.0470   133.6720   173.1810 h1         1 Y5E       0.045700
     38 H18        137.3160   132.9290   174.1380 h1         1 Y5E       0.045700
     39 H19        136.9820   130.8570   174.2320 h1         1 Y5E       0.032367
     40 H20        136.2010   129.5330   173.3840 h1         1 Y5E       0.032367
     41 H21        137.8970   129.9140   173.0460 h1         1 Y5E       0.032367
     42 H22        136.3760   136.1880   177.0650 ha         1 Y5E       0.111000
     43 H23        139.0890   138.4860   174.6880 h4         1 Y5E       0.013100
     44 O02        136.1950   138.4450   168.1750 os         1 Y5E      -0.343100
@<TRIPOS>BOND
     1     1    13 1   
     2     1    19 1   
     3     1    21 1   
     4     1    22 1   
     5     2    19 1   
     6     2    23 1   
     7     2    24 1   
     8     2    25 1   
     9     3    15 ar  
    10     3    16 ar  
    11     3    26 1   
    12     4    16 ar  
    13     4    17 ar  
    14     4    27 1   
    15     5     6 ar  
    16     5    11 ar  
    17     5    28 1   
    18     6     8 ar  
    19     6    29 1   
    20     7    30 1   
    21     7    31 1   
    22     7    32 1   
    23     7    44 1   
    24     8     9 ar  
    25     8    44 1   
    26     9    10 ar  
    27     9    33 1   
    28    10    11 ar  
    29    10    34 1   
    30    11    12 1   
    31    12    18 1   
    32    12    35 1   
    33    12    36 1   
    34    13    18 1   
    35    13    37 1   
    36    13    38 1   
    37    14    19 1   
    38    14    39 1   
    39    14    40 1   
    40    14    41 1   
    41    15    18 1   
    42    15    20 ar  
    43    16    42 1   
    44    17    20 ar  
    45    17    43 1   
@<TRIPOS>SUBSTRUCTURE
     1 Y5E         1 TEMP              0 ****  ****    0 ROOT
