@<TRIPOS>MOLECULE
Y5F
   28    29     1     0     0
SMALL
abcg2


@<TRIPOS>ATOM
      1 C02         -4.1590     5.8130     7.6600 cg         1 Y5F       0.320000
      2 C03         -5.3090     5.4820     8.4360 ca         1 Y5F      -0.041000
      3 C04         -6.5820     5.8180     7.9780 ca         1 Y5F       0.355900
      4 C06         -7.5550     4.8960     9.8320 ca         1 Y5F       0.344900
      5 C07         -6.3220     4.5170    10.3740 ca         1 Y5F      -0.079000
      6 C09         -7.1100     3.3120    12.3850 c          1 Y5F       0.627700
      7 C11         -6.5560     2.6320    13.6030 ca         1 Y5F      -0.166600
      8 C12         -5.6050     1.6340    13.4570 ca         1 Y5F      -0.022000
      9 C13         -5.1480     0.9550    14.5740 ca         1 Y5F      -0.186200
     10 C17         -5.6110     1.2540    15.8440 ca         1 Y5F      -0.018000
     11 C18         -6.5520     2.2560    15.9930 ca         1 Y5F      -0.122000
     12 C19         -7.0260     2.9350    14.8810 ca         1 Y5F       0.192000
     13 C21         -5.1760     4.8230     9.6480 ca         1 Y5F      -0.096000
     14 N01         -3.2370     6.0850     7.0260 n1         1 Y5F      -0.432000
     15 N05         -7.6650     5.5260     8.6700 nb         1 Y5F      -0.644000
     16 N08         -6.1570     3.8720    11.5980 ns         1 Y5F      -0.138000
     17 N14         -4.1530    -0.0950    14.4060 no         1 Y5F       0.697200
     18 O10         -8.2990     3.3250    12.1550 o          1 Y5F      -0.537100
     19 O15         -3.7540    -0.6550    15.3980 o          1 Y5F      -0.388500
     20 O16         -3.7820    -0.3460    13.2850 o          1 Y5F      -0.388500
     21 H1          -6.7110     6.3350     7.0350 h4         1 Y5F       0.038100
     22 H2          -8.4790     4.6900    10.3510 h4         1 Y5F       0.058100
     23 H3          -5.2360     1.3830    12.4710 ha         1 Y5F       0.159000
     24 H4          -5.2510     0.7270    16.7160 ha         1 Y5F       0.161000
     25 H5          -6.9170     2.5090    16.9790 ha         1 Y5F       0.150000
     26 H7          -4.1960     4.5510    10.0200 ha         1 Y5F       0.130000
     27 H8          -5.2040     3.8170    11.9300 hn         1 Y5F       0.161000
     28 CL1         -8.1710     4.1940    15.1200 cl         1 Y5F      -0.137000
@<TRIPOS>BOND
     1     1     2 1   
     2     1    14 3   
     3     2     3 ar  
     4     2    13 ar  
     5     3    15 ar  
     6     3    21 1   
     7     4     5 ar  
     8     4    15 ar  
     9     4    22 1   
    10     5    13 ar  
    11     5    16 1   
    12     6     7 1   
    13     6    16 1   
    14     6    18 2   
    15     7     8 ar  
    16     7    12 ar  
    17     8     9 ar  
    18     8    23 1   
    19     9    10 ar  
    20     9    17 1   
    21    10    11 ar  
    22    10    24 1   
    23    11    12 ar  
    24    11    25 1   
    25    12    28 1   
    26    13    26 1   
    27    16    27 1   
    28    17    19 1   
    29    17    20 1   
@<TRIPOS>SUBSTRUCTURE
     1 Y5F         1 TEMP              0 ****  ****    0 ROOT
