@<TRIPOS>MOLECULE
Y5F
   28    29     1     0     0
SMALL
No Charge or Current Charge


@<TRIPOS>ATOM
      1 C02         -4.1190     5.4920     7.4750 cg         1 Y5F       0.320000
      2 C03         -5.2670     5.3440     8.3190 ca         1 Y5F      -0.041000
      3 C04         -6.4980     5.8970     7.9280 ca         1 Y5F       0.355900
      4 C06         -7.5450     5.1270     9.8550 ca         1 Y5F       0.344900
      5 C07         -6.3480     4.5350    10.3330 ca         1 Y5F      -0.079000
      6 C09         -7.1850     3.5140    12.5430 c          1 Y5F       0.627700
      7 C11         -6.6570     2.7000    13.7090 ca         1 Y5F      -0.166600
      8 C12         -5.5480     1.8340    13.5200 ca         1 Y5F      -0.022000
      9 C13         -5.0390     1.0520    14.5850 ca         1 Y5F      -0.186200
     10 C17         -5.6480     1.1370    15.8540 ca         1 Y5F      -0.018000
     11 C18         -6.7430     1.9900    16.0490 ca         1 Y5F      -0.122000
     12 C19         -7.2510     2.7660    14.9960 ca         1 Y5F       0.192000
     13 C21         -5.1880     4.6520     9.5420 ca         1 Y5F      -0.096000
     14 N01         -3.1780     5.6070     6.7940 n1         1 Y5F      -0.432000
     15 N05         -7.6230     5.7950     8.6770 nb         1 Y5F      -0.644000
     16 N08         -6.2440     3.8290    11.5690 ns         1 Y5F      -0.138000
     17 N14         -3.8690     0.1380    14.3680 no         1 Y5F       0.697200
     18 O10         -8.3660     3.8190    12.4370 o          1 Y5F      -0.537100
     19 O15         -3.4710    -0.5400    15.3250 o          1 Y5F      -0.388500
     20 O16         -3.3530     0.1040    13.2440 o          1 Y5F      -0.388500
     21 H1          -6.5940     6.4390     6.9870 h4         1 Y5F       0.038100
     22 H2          -8.4760     5.0810    10.4150 h4         1 Y5F       0.058100
     23 H3          -5.0890     1.7440    12.5360 ha         1 Y5F       0.159000
     24 H4          -5.2800     0.5500    16.6950 ha         1 Y5F       0.161000
     25 H5          -7.2010     2.0580    17.0330 ha         1 Y5F       0.150000
     26 H7          -4.2460     4.2140     9.8680 ha         1 Y5F       0.130000
     27 H8          -5.3060     3.5180    11.7840 hn         1 Y5F       0.161000
     28 Cl1         -8.5920     3.8480    15.3850 cl         1 Y5F      -0.137000
@<TRIPOS>BOND
     1     1     2 1   
     2     1    14 3   
     3     2     3 ar  
     4     2    13 ar  
     5     3    15 ar  
     6     3    21 1   
     7     4     5 ar  
     8     4    15 ar  
     9     4    22 1   
    10     5    13 ar  
    11     5    16 1   
    12     6     7 1   
    13     6    16 1   
    14     6    18 2   
    15     7     8 ar  
    16     7    12 ar  
    17     8     9 ar  
    18     8    23 1   
    19     9    10 ar  
    20     9    17 1   
    21    10    11 ar  
    22    10    24 1   
    23    11    12 ar  
    24    11    25 1   
    25    12    28 1   
    26    13    26 1   
    27    16    27 1   
    28    17    19 1   
    29    17    20 1   
@<TRIPOS>SUBSTRUCTURE
     1 Y5F         1 TEMP              0 ****  ****    0 ROOT
