@<TRIPOS>MOLECULE
Y5G
   73    78     1     0     0
SMALL
abcg2


@<TRIPOS>ATOM
      1 C10         11.6170   -15.8100     5.3660 cc         1 Y5G      -0.106000
      2 C13         10.4620   -18.6990     5.7700 ca         1 Y5G      -0.232800
      3 C15         11.8440   -20.4740     5.8020 cc         1 Y5G      -0.165100
      4 C17          9.6920   -19.8790     5.9640 ca         1 Y5G       0.179500
      5 C21          5.4510   -17.7530     6.1250 ca         1 Y5G       0.321000
      6 C22          4.1200   -18.1280     5.8980 ca         1 Y5G      -0.150500
      7 C24          3.3770   -15.8210     6.0490 ca         1 Y5G      -0.105300
      8 C26          2.4890   -13.7910     4.8270 c6         1 Y5G      -0.105400
      9 C04         14.0070   -14.1870     4.3910 cy         1 Y5G       0.216300
     10 C05         12.7610   -13.5870     5.0840 cy         1 Y5G       0.082000
     11 C06         13.0670   -12.9050     6.4270 c3         1 Y5G      -0.014300
     12 C07         13.4230   -13.8690     7.4590 c1         1 Y5G       0.288900
     13 C11         10.2910   -16.1880     5.5270 cd         1 Y5G      -0.272500
     14 C12          9.7200   -17.5120     5.7240 ca         1 Y5G       0.312500
     15 C14         11.8350   -19.1160     5.6710 cd         1 Y5G      -0.199200
     16 C19          7.7760   -18.7330     6.0390 ca         1 Y5G       0.411900
     17 C23          3.1100   -17.1780     5.8640 ca         1 Y5G      -0.079000
     18 C25          2.2780   -14.7880     5.9800 c6         1 Y5G      -0.008400
     19 C27          1.3810   -12.7330     4.8050 c6         1 Y5G       0.161800
     20 C30          1.0080   -12.9540     7.1720 c6         1 Y5G       0.161800
     21 C31          2.1030   -14.0190     7.3010 c6         1 Y5G      -0.105400
     22 C32          4.7030   -15.4600     6.2890 ca         1 Y5G      -0.079000
     23 C33          5.7280   -16.3960     6.3340 ca         1 Y5G      -0.150500
     24 C35          9.5730   -14.9670     5.4500 cd         1 Y5G       0.305900
     25 C37         12.6720   -12.5660     3.9260 cy         1 Y5G       0.216300
     26 C39         17.0980   -12.2640     3.0510 c3         1 Y5G      -0.064100
     27 N03         14.0490   -12.9680     3.5510 nq         1 Y5G      -0.787500
     28 N08         13.7010   -14.6510     8.2550 n1         1 Y5G      -0.441000
     29 N09         11.6240   -14.4710     5.1980 na         1 Y5G       0.105800
     30 N16         10.5490   -20.9360     5.9800 na         1 Y5G      -0.339400
     31 N18          8.3730   -19.9350     6.1020 nb         1 Y5G      -0.273000
     32 N20          6.4080   -18.7720     6.1610 nu         1 Y5G      -0.934900
     33 N28          1.2190   -12.0120     6.0700 n3         1 Y5G      -0.718600
     34 N34          8.3850   -17.5550     5.8610 nb         1 Y5G      -0.265000
     35 N36         10.3800   -13.9360     5.2580 nc         1 Y5G      -0.535800
     36 S02         14.6320   -12.9340     2.0130 s6         1 Y5G       1.214100
     37 H101        12.5290   -16.3780     5.3590 h4         1 Y5G       0.162000
     38 H151        12.6690   -21.1670     5.7850 h4         1 Y5G       0.219000
     39 H221         3.8840   -19.1750     5.7420 ha         1 Y5G       0.126500
     40 H262         2.5060   -14.3250     3.8730 hc         1 Y5G       0.046700
     41 H261         3.4630   -13.3080     4.9380 hc         1 Y5G       0.046700
     42 H042        13.7860   -15.0880     3.8200 h1         1 Y5G       0.084950
     43 H041        14.8880   -14.3340     5.0110 h1         1 Y5G       0.084950
     44 H061        13.8950   -12.2050     6.3000 hc         1 Y5G       0.095200
     45 H062        12.1940   -12.3390     6.7560 hc         1 Y5G       0.095200
     46 H141        12.7080   -18.5060     5.5210 ha         1 Y5G       0.200000
     47 H231         2.0910   -17.5000     5.6810 ha         1 Y5G       0.110000
     48 H251         1.3390   -15.3190     5.7860 hc         1 Y5G       0.048700
     49 H271         1.5670   -12.0050     4.0120 h1         1 Y5G       0.050950
     50 H272         0.4280   -13.2240     4.5800 h1         1 Y5G       0.050950
     51 H293         2.0710   -10.5080     7.2440 h1         1 Y5G       0.029367
     52 H291         3.2880   -11.5120     6.4430 h1         1 Y5G       0.029367
     53 H292         2.3460   -10.3460     5.5030 h1         1 Y5G       0.029367
     54 H301         0.9160   -12.3870     8.1000 h1         1 Y5G       0.050950
     55 H302         0.0490   -13.4550     6.9990 h1         1 Y5G       0.050950
     56 H311         1.8460   -14.7140     8.1050 hc         1 Y5G       0.046700
     57 H312         3.0500   -13.5480     7.5790 hc         1 Y5G       0.046700
     58 H321         4.9550   -14.4180     6.4480 ha         1 Y5G       0.110000
     59 H331         6.7400   -16.0820     6.5210 ha         1 Y5G       0.126500
     60 H351         8.5080   -14.8210     5.5180 h4         1 Y5G       0.058100
     61 H372        12.5700   -11.5200     4.2030 h1         1 Y5G       0.084950
     62 H371        11.9240   -12.8470     3.1880 h1         1 Y5G       0.084950
     63 H382        15.5710   -10.8450     2.3980 h1         1 Y5G       0.101700
     64 H381        16.3580   -11.7190     1.0710 h1         1 Y5G       0.101700
     65 H392        17.9040   -11.5290     3.0500 hc         1 Y5G       0.049700
     66 H393        16.7200   -12.3540     4.0700 hc         1 Y5G       0.049700
     67 H391        17.5090   -13.2240     2.7410 hc         1 Y5G       0.049700
     68 H161        10.2790   -21.8990     6.0990 hn         1 Y5G       0.363000
     69 H201         6.0420   -19.7110     6.1810 hn         1 Y5G       0.507000
     70 C29          2.2930   -11.0590     6.3280 c3         1 Y5G       0.153100
     71 C38         16.0050   -11.8010     2.1010 c3         1 Y5G      -0.305400
     72 O01         15.1400   -14.2530     1.6990 o          1 Y5G      -0.544000
     73 O40         13.6160   -12.3460     1.1660 o          1 Y5G      -0.544000
@<TRIPOS>BOND
     1     1    13 2   
     2     1    29 1   
     3     1    37 1   
     4     2     4 ar  
     5     2    14 ar  
     6     2    15 1   
     7     3    15 2   
     8     3    30 1   
     9     3    38 1   
    10     4    30 1   
    11     4    31 ar  
    12     5     6 ar  
    13     5    23 ar  
    14     5    32 1   
    15     6    17 ar  
    16     6    39 1   
    17     7    17 ar  
    18     7    18 1   
    19     7    22 ar  
    20     8    18 1   
    21     8    19 1   
    22     8    40 1   
    23     8    41 1   
    24     9    10 1   
    25     9    27 1   
    26     9    42 1   
    27     9    43 1   
    28    10    11 1   
    29    10    25 1   
    30    10    29 1   
    31    11    12 1   
    32    11    44 1   
    33    11    45 1   
    34    12    28 3   
    35    13    14 1   
    36    13    24 1   
    37    14    34 ar  
    38    15    46 1   
    39    16    31 ar  
    40    16    32 1   
    41    16    34 ar  
    42    17    47 1   
    43    18    21 1   
    44    18    48 1   
    45    19    33 1   
    46    19    49 1   
    47    19    50 1   
    48    20    21 1   
    49    20    33 1   
    50    20    54 1   
    51    20    55 1   
    52    21    56 1   
    53    21    57 1   
    54    22    23 ar  
    55    22    58 1   
    56    23    59 1   
    57    24    35 2   
    58    24    60 1   
    59    25    27 1   
    60    25    61 1   
    61    25    62 1   
    62    26    65 1   
    63    26    66 1   
    64    26    67 1   
    65    26    71 1   
    66    27    36 1   
    67    29    35 1   
    68    30    68 1   
    69    32    69 1   
    70    33    70 1   
    71    36    71 1   
    72    36    72 2   
    73    36    73 2   
    74    51    70 1   
    75    52    70 1   
    76    53    70 1   
    77    63    71 1   
    78    64    71 1   
@<TRIPOS>SUBSTRUCTURE
     1 Y5G         1 TEMP              0 ****  ****    0 ROOT
