@<TRIPOS>MOLECULE
Y5G
   73    78     1     0     0
SMALL
No Charge or Current Charge


@<TRIPOS>ATOM
      1 C10         11.6350   -15.6680     5.2220 cc         1 Y5G      -0.106000
      2 C13         10.4650   -18.5510     5.8350 ca         1 Y5G      -0.232800
      3 C15         12.0420   -20.2440     6.0900 cc         1 Y5G      -0.165100
      4 C17          9.7990   -19.6980     6.1990 ca         1 Y5G       0.179500
      5 C21          5.4170   -17.6820     6.1540 ca         1 Y5G       0.321000
      6 C22          4.1380   -18.1060     5.7590 ca         1 Y5G      -0.150500
      7 C24          3.2580   -15.8480     6.0570 ca         1 Y5G      -0.105300
      8 C26          2.3370   -13.7080     4.9880 c6         1 Y5G      -0.105400
      9 C04         14.0420   -14.0700     4.0180 cy         1 Y5G       0.216300
     10 C05         12.7440   -13.4410     4.6580 cy         1 Y5G       0.082000
     11 C06         12.9480   -12.6090     5.9600 c3         1 Y5G      -0.014300
     12 C07         13.3720   -13.4440     7.0910 c1         1 Y5G       0.288900
     13 C11         10.3190   -16.0530     5.2370 cd         1 Y5G      -0.272500
     14 C12          9.7390   -17.3620     5.5960 ca         1 Y5G       0.312500
     15 C14         11.8660   -18.9130     5.7620 cd         1 Y5G      -0.199200
     16 C19          7.8310   -18.5630     6.0930 ca         1 Y5G       0.411900
     17 C23          3.0660   -17.1970     5.7040 ca         1 Y5G      -0.079000
     18 C25          2.0820   -14.8610     5.9960 c6         1 Y5G      -0.008400
     19 C27          1.1510   -12.7080     4.9720 c6         1 Y5G       0.161800
     20 C30          0.5670   -13.2600     7.2970 c6         1 Y5G       0.161800
     21 C31          1.7340   -14.2790     7.3920 c6         1 Y5G      -0.105400
     22 C32          4.5370   -15.4250     6.4720 ca         1 Y5G      -0.079000
     23 C33          5.6060   -16.3370     6.5240 ca         1 Y5G      -0.150500
     24 C35          9.5710   -14.9120     4.8670 cd         1 Y5G       0.305900
     25 C37         12.7630   -12.6000     3.3260 cy         1 Y5G       0.216300
     26 C39         17.4780   -13.2090     3.3960 c3         1 Y5G      -0.064100
     27 N03         14.2450   -12.7300     3.3970 nq         1 Y5G      -0.787500
     28 N08         13.7210   -14.1270     7.9680 n1         1 Y5G      -0.441000
     29 N09         11.5970   -14.3320     4.8290 na         1 Y5G       0.105800
     30 N16         10.7370   -20.7050     6.3600 na         1 Y5G      -0.339400
     31 N18          8.4640   -19.7260     6.3300 nb         1 Y5G      -0.273000
     32 N20          6.4490   -18.6260     6.2020 nu         1 Y5G      -0.934900
     33 N28          0.8580   -12.1630     6.3290 n3         1 Y5G      -0.718600
     34 N34          8.3950   -17.3940     5.7250 nb         1 Y5G      -0.265000
     35 N36         10.3210   -13.8590     4.6110 nc         1 Y5G      -0.535800
     36 S02         15.1430   -12.5760     1.9460 s6         1 Y5G       1.214100
     37 H101        12.5560   -16.1760     5.4660 h4         1 Y5G       0.162000
     38 H151        12.9330   -20.8690     6.1390 h4         1 Y5G       0.219000
     39 H221         3.9710   -19.1430     5.4810 ha         1 Y5G       0.126500
     40 H262         2.4790   -14.1210     3.9810 hc         1 Y5G       0.046700
     41 H261         3.2670   -13.1780     5.2350 hc         1 Y5G       0.046700
     42 H042        13.8250   -14.8890     3.3190 h1         1 Y5G       0.084950
     43 H041        14.8060   -14.3940     4.7340 h1         1 Y5G       0.084950
     44 H061        13.7050   -11.8310     5.8160 hc         1 Y5G       0.095200
     45 H062        12.0220   -12.0920     6.2350 hc         1 Y5G       0.095200
     46 H141        12.6860   -18.2690     5.4630 ha         1 Y5G       0.200000
     47 H231         2.0860   -17.5480     5.3870 ha         1 Y5G       0.110000
     48 H251         1.1940   -15.4060     5.6430 hc         1 Y5G       0.048700
     49 H271         1.3720   -11.8920     4.2680 h1         1 Y5G       0.050950
     50 H272         0.2620   -13.2260     4.5820 h1         1 Y5G       0.050950
     51 H293         1.5550   -10.7600     7.7770 h1         1 Y5G       0.029367
     52 H291         2.8500   -11.6540     6.9500 h1         1 Y5G       0.029367
     53 H292         1.9760   -10.3620     6.0990 h1         1 Y5G       0.029367
     54 H301         0.3610   -12.8490     8.2970 h1         1 Y5G       0.050950
     55 H302        -0.3410   -13.7970     6.9860 h1         1 Y5G       0.050950
     56 H311         1.4520   -15.0930     8.0720 hc         1 Y5G       0.046700
     57 H312         2.6130   -13.7970     7.8400 hc         1 Y5G       0.046700
     58 H321         4.7060   -14.3910     6.7610 ha         1 Y5G       0.110000
     59 H331         6.5720   -15.9900     6.8710 ha         1 Y5G       0.126500
     60 H351         8.4950   -14.8220     4.7750 h4         1 Y5G       0.058100
     61 H372        12.3610   -11.5840     3.4130 h1         1 Y5G       0.084950
     62 H371        12.2840   -13.1120     2.4800 h1         1 Y5G       0.084950
     63 H382        16.7020   -11.1940     3.0350 h1         1 Y5G       0.101700
     64 H381        17.3870   -11.9830     1.5860 h1         1 Y5G       0.101700
     65 H392        18.5010   -12.9010     3.6460 hc         1 Y5G       0.049700
     66 H393        16.9290   -13.3360     4.3370 hc         1 Y5G       0.049700
     67 H391        17.5300   -14.1790     2.8880 hc         1 Y5G       0.049700
     68 H161        10.4980   -21.6530     6.6320 hn         1 Y5G       0.363000
     69 H201         6.1180   -19.5880     6.2510 hn         1 Y5G       0.507000
     70 C29          1.8650   -11.1880     6.8140 c3         1 Y5G       0.153100
     71 C38         16.8030   -12.1430     2.4980 c3         1 Y5G      -0.305400
     72 O01         15.1570   -13.8960     1.3090 o          1 Y5G      -0.544000
     73 O40         14.5760   -11.4250     1.2360 o          1 Y5G      -0.544000
@<TRIPOS>BOND
     1     1    13 2   
     2     1    29 1   
     3     1    37 1   
     4     2     4 ar  
     5     2    14 ar  
     6     2    15 1   
     7     3    15 2   
     8     3    30 1   
     9     3    38 1   
    10     4    30 1   
    11     4    31 ar  
    12     5     6 ar  
    13     5    23 ar  
    14     5    32 1   
    15     6    17 ar  
    16     6    39 1   
    17     7    17 ar  
    18     7    18 1   
    19     7    22 ar  
    20     8    18 1   
    21     8    19 1   
    22     8    40 1   
    23     8    41 1   
    24     9    10 1   
    25     9    27 1   
    26     9    42 1   
    27     9    43 1   
    28    10    11 1   
    29    10    25 1   
    30    10    29 1   
    31    11    12 1   
    32    11    44 1   
    33    11    45 1   
    34    12    28 3   
    35    13    14 1   
    36    13    24 1   
    37    14    34 ar  
    38    15    46 1   
    39    16    31 ar  
    40    16    32 1   
    41    16    34 ar  
    42    17    47 1   
    43    18    21 1   
    44    18    48 1   
    45    19    33 1   
    46    19    49 1   
    47    19    50 1   
    48    20    21 1   
    49    20    33 1   
    50    20    54 1   
    51    20    55 1   
    52    21    56 1   
    53    21    57 1   
    54    22    23 ar  
    55    22    58 1   
    56    23    59 1   
    57    24    35 2   
    58    24    60 1   
    59    25    27 1   
    60    25    61 1   
    61    25    62 1   
    62    26    65 1   
    63    26    66 1   
    64    26    67 1   
    65    26    71 1   
    66    27    36 1   
    67    29    35 1   
    68    30    68 1   
    69    32    69 1   
    70    33    70 1   
    71    36    71 1   
    72    36    72 2   
    73    36    73 2   
    74    51    70 1   
    75    52    70 1   
    76    53    70 1   
    77    63    71 1   
    78    64    71 1   
@<TRIPOS>SUBSTRUCTURE
     1 Y5G         1 TEMP              0 ****  ****    0 ROOT
