@<TRIPOS>MOLECULE
Y5H
   59    63     1     0     0
SMALL
bcc


@<TRIPOS>ATOM
      1 CL1         -5.2930     1.2850    -1.5520 cl         1 Y5H      -0.042400
      2 C25         -4.0410     1.9760    -0.6260 cc         1 Y5H       0.017300
      3 C24         -4.1510     2.9990     0.2640 cd         1 Y5H      -0.135000
      4 C22         -2.9020     3.3140     0.8540 cd         1 Y5H      -0.094000
      5 S1          -2.4360     1.3790    -0.7690 ss         1 Y5H      -0.008800
      6 C20         -1.8850     2.5260     0.3950 cc         1 Y5H      -0.126600
      7 C17         -0.4920     2.5260     0.7510 cc         1 Y5H       0.573900
      8 N16          0.4290     1.7740     0.2550 nd         1 Y5H      -0.674000
      9 O10         -0.0570     3.3630     1.6980 os         1 Y5H      -0.320800
     10 C9           1.2710     3.1020     1.8130 cc         1 Y5H       0.169300
     11 C4           1.5750     2.1250     0.9330 cd         1 Y5H       0.234300
     12 C1           2.8800     1.4610     0.6730 c5         1 Y5H       0.166200
     13 N3           3.2070     1.5300    -0.7520 n3         1 Y5H      -0.672600
     14 C7           4.1260     0.4340    -1.0290 c5         1 Y5H       0.160500
     15 C14          5.5170     0.9330    -0.6000 c5         1 Y5H      -0.106400
     16 C15          5.4280     2.4620    -0.7660 c5         1 Y5H      -0.112400
     17 C8           3.9430     2.7330    -1.1130 c5         1 Y5H       0.142800
     18 C5           3.5580    -0.7110    -0.2130 c5         1 Y5H      -0.143700
     19 C2           2.9270    -0.0580     1.0170 c5         1 Y5H      -0.151700
     20 C6           1.5680    -0.7030     1.1270 c          1 Y5H       0.736500
     21 O13          0.8130    -0.6730     2.0660 o          1 Y5H      -0.581500
     22 C11          2.3950    -1.3900    -0.9030 c          1 Y5H       0.730500
     23 O18          2.3920    -1.8940    -1.9990 o          1 Y5H      -0.574500
     24 N12          1.3110    -1.3630    -0.0550 n          1 Y5H      -0.512400
     25 C19          0.0370    -1.9760    -0.3510 c3         1 Y5H       0.113000
     26 C21         -0.0640    -3.3880     0.2190 c3         1 Y5H      -0.126400
     27 C23         -1.3970    -3.9830    -0.1950 c3         1 Y5H       0.128800
     28 N29         -1.7500    -5.2850     0.4700 n4         1 Y5H      -0.607800
     29 C32         -3.0210    -5.7740    -0.1370 c3         1 Y5H       0.103767
     30 C31         -0.6850    -6.3020     0.2520 c3         1 Y5H       0.103767
     31 C30         -1.9620    -5.0940     1.9310 c3         1 Y5H       0.103767
     32 H24         -5.0770     3.5070     0.4880 ha         1 Y5H       0.175000
     33 H22         -2.7720     4.0960     1.5890 ha         1 Y5H       0.172000
     34 H9           1.8350     3.6690     2.5340 h4         1 Y5H       0.074100
     35 H1           3.6350     1.9530     1.3010 h1         1 Y5H       0.054700
     36 H7           4.1250     0.2090    -2.0990 h1         1 Y5H       0.103700
     37 H82          3.8320     2.9060    -2.1860 h1         1 Y5H       0.068200
     38 H81          3.5330     3.6070    -0.6060 h1         1 Y5H       0.068200
     39 H5           4.3080    -1.4690     0.0270 hc         1 Y5H       0.098700
     40 H2           3.4770    -0.2150     1.9440 hc         1 Y5H       0.098700
     41 H141         5.7180     0.6650     0.4400 hc         1 Y5H       0.053700
     42 H142         6.3080     0.4850    -1.1990 hc         1 Y5H       0.053700
     43 H151         5.7240     2.9740     0.1500 hc         1 Y5H       0.056700
     44 H152         6.0820     2.8270    -1.5580 hc         1 Y5H       0.056700
     45 H191        -0.7460    -1.3410     0.0630 h1         1 Y5H       0.079200
     46 H192        -0.0870    -1.9840    -1.4340 h1         1 Y5H       0.079200
     47 H211         0.7640    -3.9890    -0.1620 hc         1 Y5H       0.072700
     48 H212         0.0330    -3.3350     1.3040 hc         1 Y5H       0.072700
     49 H231        -2.2160    -3.2980     0.0280 hx         1 Y5H       0.095700
     50 H232        -1.4070    -4.1720    -1.2690 hx         1 Y5H       0.095700
     51 H321        -2.8640    -5.9550    -1.1960 hx         1 Y5H       0.097478
     52 H322        -3.3160    -6.6970     0.3540 hx         1 Y5H       0.097478
     53 H323        -3.7910    -5.0200     0.0000 hx         1 Y5H       0.097478
     54 H311         0.2250    -5.9960     0.7570 hx         1 Y5H       0.097478
     55 H312        -1.0200    -7.2500     0.6630 hx         1 Y5H       0.097478
     56 H313        -0.5010    -6.4070    -0.8150 hx         1 Y5H       0.097478
     57 H301        -2.7240    -4.3360     2.0870 hx         1 Y5H       0.097478
     58 H302        -2.2860    -6.0370     2.3640 hx         1 Y5H       0.097478
     59 H303        -1.0340    -4.7890     2.4040 hx         1 Y5H       0.097478
@<TRIPOS>BOND
     1     1     2 1   
     2     2     3 2   
     3     2     5 1   
     4     3     4 1   
     5     3    32 1   
     6     4     6 2   
     7     4    33 1   
     8     5     6 1   
     9     6     7 1   
    10     7     8 2   
    11     7     9 1   
    12     8    11 1   
    13     9    10 1   
    14    10    11 2   
    15    10    34 1   
    16    11    12 1   
    17    12    13 1   
    18    12    19 1   
    19    12    35 1   
    20    13    14 1   
    21    13    17 1   
    22    14    15 1   
    23    14    18 1   
    24    14    36 1   
    25    15    16 1   
    26    15    41 1   
    27    15    42 1   
    28    16    17 1   
    29    16    43 1   
    30    16    44 1   
    31    17    37 1   
    32    17    38 1   
    33    18    19 1   
    34    18    22 1   
    35    18    39 1   
    36    19    20 1   
    37    19    40 1   
    38    20    21 2   
    39    20    24 1   
    40    22    23 2   
    41    22    24 1   
    42    24    25 1   
    43    25    26 1   
    44    25    45 1   
    45    25    46 1   
    46    26    27 1   
    47    26    47 1   
    48    26    48 1   
    49    27    28 1   
    50    27    49 1   
    51    27    50 1   
    52    28    29 1   
    53    28    30 1   
    54    28    31 1   
    55    29    51 1   
    56    29    52 1   
    57    29    53 1   
    58    30    54 1   
    59    30    55 1   
    60    30    56 1   
    61    31    57 1   
    62    31    58 1   
    63    31    59 1   
@<TRIPOS>SUBSTRUCTURE
     1 Y5H         1 TEMP              0 ****  ****    0 ROOT
