@<TRIPOS>MOLECULE
Y5H
   59    63     1     0     0
SMALL
No Charge or Current Charge


@<TRIPOS>ATOM
      1 Cl1         -5.6070     3.6200    -1.6790 cl         1 Y5H      -0.134000
      2 C25         -4.1760     3.6460    -0.6950 cc         1 Y5H      -0.036000
      3 C24         -4.0210     4.3530     0.4710 cd         1 Y5H      -0.117000
      4 C22         -2.7370     4.1810     1.0610 cd         1 Y5H      -0.076000
      5 S1          -2.7270     2.7340    -1.1130 ss         1 Y5H       0.281000
      6 C20         -1.9260     3.3410     0.3310 cc         1 Y5H      -0.271500
      7 C17         -0.5890     2.9950     0.6980 cc         1 Y5H       0.529500
      8 N16          0.2260     2.1940     0.0320 nd         1 Y5H      -0.674000
      9 O10         -0.0620     3.5230     1.8470 os         1 Y5H      -0.232000
     10 C9           1.1920     3.0020     1.9060 cc         1 Y5H       0.124900
     11 C4           1.3660     2.1990     0.8150 cd         1 Y5H       0.234300
     12 C1           2.7080     1.4710     0.6310 c5         1 Y5H       0.166200
     13 N3           2.9710     1.3210    -0.8360 n3         1 Y5H      -0.672600
     14 C7           4.0110     0.2970    -0.9730 c5         1 Y5H       0.160500
     15 C14          5.3100     0.9980    -0.4690 c5         1 Y5H      -0.106400
     16 C15          5.0940     2.4780    -0.9260 c5         1 Y5H      -0.112400
     17 C8           3.6000     2.5490    -1.3910 c5         1 Y5H       0.142800
     18 C5           3.5620    -0.7860     0.0490 c5         1 Y5H      -0.143700
     19 C2           2.6900    -0.0190     1.1200 c5         1 Y5H      -0.151700
     20 C6           1.2860    -0.6370     1.0080 c          1 Y5H       0.594000
     21 O13          0.3530    -0.5620     1.7950 o          1 Y5H      -0.506000
     22 C11          2.5790    -1.7110    -0.6820 c          1 Y5H       0.588000
     23 O18          2.8150    -2.5560    -1.5340 o          1 Y5H      -0.499000
     24 N12          1.3560    -1.5310    -0.0510 n          1 Y5H      -0.378400
     25 C19          0.1590    -2.2810    -0.4870 c3         1 Y5H       0.113000
     26 C21          0.0050    -3.6280     0.2440 c3         1 Y5H      -0.126400
     27 C23         -1.2490    -4.4020    -0.2130 c3         1 Y5H       0.100600
     28 N29         -1.5180    -5.7650     0.4440 n4         1 Y5H      -0.495000
     29 C32         -2.8030    -6.3550    -0.1530 c3         1 Y5H       0.075567
     30 C31         -0.3570    -6.7340     0.1720 c3         1 Y5H       0.075567
     31 C30         -1.7070    -5.6040     1.9610 c3         1 Y5H       0.075567
     32 H24         -4.7990     4.9780     0.8980 ha         1 Y5H       0.157000
     33 H22         -2.4390     4.6650     1.9880 ha         1 Y5H       0.154000
     34 H9           1.8290     3.2680     2.7380 h4         1 Y5H       0.074100
     35 H1           3.4920     2.0370     1.1530 h1         1 Y5H       0.054700
     36 H7           4.1200    -0.0740    -2.0050 h1         1 Y5H       0.103700
     37 H82          3.5510     2.5320    -2.4890 h1         1 Y5H       0.068200
     38 H81          3.1030     3.4720    -1.0620 h1         1 Y5H       0.068200
     39 H5           4.4000    -1.3770     0.4350 hc         1 Y5H       0.098700
     40 H2           3.0350    -0.0970     2.1560 hc         1 Y5H       0.098700
     41 H141         5.4400     0.9340     0.6190 hc         1 Y5H       0.053700
     42 H142         6.2060     0.5530    -0.9150 hc         1 Y5H       0.053700
     43 H151         5.2890     3.1750    -0.1030 hc         1 Y5H       0.056700
     44 H152         5.7710     2.7560    -1.7420 hc         1 Y5H       0.056700
     45 H191        -0.7350    -1.6660    -0.3110 h1         1 Y5H       0.079200
     46 H192         0.2170    -2.4570    -1.5700 h1         1 Y5H       0.079200
     47 H211         0.8990    -4.2350     0.0620 hc         1 Y5H       0.072700
     48 H212        -0.0500    -3.4430     1.3230 hc         1 Y5H       0.072700
     49 H231        -2.1270    -3.7760    -0.0330 hx         1 Y5H       0.095700
     50 H232        -1.1790    -4.5700    -1.2910 hx         1 Y5H       0.095700
     51 H321        -2.6770    -6.4800    -1.2310 hx         1 Y5H       0.097478
     52 H322        -3.0040    -7.3240     0.3070 hx         1 Y5H       0.097478
     53 H323        -3.6370    -5.6770     0.0420 hx         1 Y5H       0.097478
     54 H311         0.5560    -6.3400     0.6220 hx         1 Y5H       0.097478
     55 H312        -0.5890    -7.7070     0.6090 hx         1 Y5H       0.097478
     56 H313        -0.2200    -6.8390    -0.9060 hx         1 Y5H       0.097478
     57 H301        -2.5270    -4.9080     2.1510 hx         1 Y5H       0.097478
     58 H302        -1.9410    -6.5760     2.4000 hx         1 Y5H       0.097478
     59 H303        -0.7870    -5.2170     2.4020 hx         1 Y5H       0.097478
@<TRIPOS>BOND
     1     1     2 1   
     2     2     3 2   
     3     2     5 1   
     4     3     4 1   
     5     3    32 1   
     6     4     6 2   
     7     4    33 1   
     8     5     6 1   
     9     6     7 1   
    10     7     8 2   
    11     7     9 1   
    12     8    11 1   
    13     9    10 1   
    14    10    11 2   
    15    10    34 1   
    16    11    12 1   
    17    12    13 1   
    18    12    19 1   
    19    12    35 1   
    20    13    14 1   
    21    13    17 1   
    22    14    15 1   
    23    14    18 1   
    24    14    36 1   
    25    15    16 1   
    26    15    41 1   
    27    15    42 1   
    28    16    17 1   
    29    16    43 1   
    30    16    44 1   
    31    17    37 1   
    32    17    38 1   
    33    18    19 1   
    34    18    22 1   
    35    18    39 1   
    36    19    20 1   
    37    19    40 1   
    38    20    21 2   
    39    20    24 1   
    40    22    23 2   
    41    22    24 1   
    42    24    25 1   
    43    25    26 1   
    44    25    45 1   
    45    25    46 1   
    46    26    27 1   
    47    26    47 1   
    48    26    48 1   
    49    27    28 1   
    50    27    49 1   
    51    27    50 1   
    52    28    29 1   
    53    28    30 1   
    54    28    31 1   
    55    29    51 1   
    56    29    52 1   
    57    29    53 1   
    58    30    54 1   
    59    30    55 1   
    60    30    56 1   
    61    31    57 1   
    62    31    58 1   
    63    31    59 1   
@<TRIPOS>SUBSTRUCTURE
     1 Y5H         1 TEMP              0 ****  ****    0 ROOT
