@<TRIPOS>MOLECULE
Y5I
   49    51     1     0     0
SMALL
No Charge or Current Charge


@<TRIPOS>ATOM
      1 C21         16.5320    34.2680     9.0060 ca         1 Y5I      -0.070000
      2 C20         16.2640    32.9520     9.4170 ca         1 Y5I       0.131000
      3 C18         19.9140    28.7360    15.3650 ca         1 Y5I       0.198000
      4 C16         19.1380    30.3330    18.2460 c3         1 Y5I      -0.205400
      5 C14         18.8330    28.7460    16.2720 ca         1 Y5I      -0.107300
      6 C6          18.3770    32.2190     8.4680 ca         1 Y5I      -0.190000
      7 C4          17.7290    34.5820     8.3190 ca         1 Y5I      -0.165500
      8 C2          18.8320    38.0270     7.0380 cc         1 Y5I       0.404700
      9 O3          18.3700    30.3890    20.4890 o          1 Y5I      -0.739000
     10 C1          19.5980    39.1500     6.4050 c3         1 Y5I      -0.129400
     11 C9          17.1130    28.2680     9.9830 c3         1 Y5I      -0.076400
     12 C11         18.3810    28.5380    13.4870 ca         1 Y5I       0.137100
     13 C12         17.2930    28.5490    14.3860 ca         1 Y5I      -0.215000
     14 N1          17.6500    38.1750     7.6170 nd         1 Y5I      -0.318000
     15 N2          17.1700    36.9770     8.1130 nd         1 Y5I      -0.331000
     16 C3          18.0030    35.9670     7.8900 cc         1 Y5I       0.488900
     17 C5          18.6460    33.5370     8.0570 ca         1 Y5I      -0.063000
     18 C7          17.1810    31.9160     9.1540 ca         1 Y5I       0.141100
     19 O1          16.8770    30.6340     9.5770 os         1 Y5I      -0.327100
     20 C8          17.7650    29.5220     9.3660 c3         1 Y5I       0.166600
     21 C10         16.9180    28.3490    11.5100 c3         1 Y5I       0.168600
     22 O2          18.2170    28.4380    12.1220 os         1 Y5I      -0.362100
     23 C13         17.5200    28.6540    15.7690 ca         1 Y5I      -0.063000
     24 C17         19.3550    30.3890    19.7670 c          1 Y5I       0.720000
     25 O4          20.5020    30.3770    20.1860 o          1 Y5I      -0.739000
     26 C19         19.6870    28.6320    13.9840 ca         1 Y5I      -0.200000
     27 F2          15.1090    32.6900    10.0740 f          1 Y5I      -0.162000
     28 S1          19.4620    36.4110     7.0430 ss         1 Y5I      -0.285800
     29 H19         15.7980    35.0390     9.2300 ha         1 Y5I       0.158000
     30 H16         19.9930    30.7740    17.7190 hc         1 Y5I       0.022700
     31 H17         18.1740    30.7840    17.9780 hc         1 Y5I       0.022700
     32 H14         18.2520    28.3550    18.3190 hc         1 Y5I       0.054700
     33 H15         19.9830    28.3410    18.0650 hc         1 Y5I       0.054700
     34 H5          19.1090    31.4480     8.2450 ha         1 Y5I       0.124000
     35 H1          19.5780    39.0620     5.3130 hc         1 Y5I       0.060367
     36 H2          19.1720    40.1230     6.6770 hc         1 Y5I       0.060367
     37 H3          20.6440    39.1360     6.7310 hc         1 Y5I       0.060367
     38 H8          16.1400    28.1020     9.5070 hc         1 Y5I       0.058700
     39 H9          17.7300    27.3930     9.7480 hc         1 Y5I       0.058700
     40 H12         16.2680    28.4790    14.0320 ha         1 Y5I       0.108000
     41 H4          19.5780    33.7300     7.5310 ha         1 Y5I       0.116000
     42 H6          17.9240    29.3550     8.2930 h1         1 Y5I       0.044200
     43 H7          18.7400    29.7040     9.8380 h1         1 Y5I       0.044200
     44 H10         16.3060    29.2260    11.7600 h1         1 Y5I       0.044200
     45 H11         16.3920    27.4490    11.8540 h1         1 Y5I       0.044200
     46 H13         16.6730    28.6650    16.4530 ha         1 Y5I       0.117000
     47 H18         20.5290    28.6250    13.2990 ha         1 Y5I       0.128000
     48 C15         19.0610    28.8620    17.7770 c3         1 Y5I      -0.013100
     49 F1          21.1860    28.8280    15.8130 f          1 Y5I      -0.174000
@<TRIPOS>BOND
     1     1     2 ar  
     2     1     7 ar  
     3     1    29 1   
     4     2    18 ar  
     5     2    27 1   
     6     3     5 ar  
     7     3    26 ar  
     8     3    49 1   
     9     4    24 1   
    10     4    30 1   
    11     4    31 1   
    12     4    48 1   
    13     5    23 ar  
    14     5    48 1   
    15     6    17 ar  
    16     6    18 ar  
    17     6    34 1   
    18     7    16 1   
    19     7    17 ar  
    20     8    10 1   
    21     8    14 2   
    22     8    28 1   
    23     9    24 1   
    24    10    35 1   
    25    10    36 1   
    26    10    37 1   
    27    11    20 1   
    28    11    21 1   
    29    11    38 1   
    30    11    39 1   
    31    12    13 ar  
    32    12    22 1   
    33    12    26 ar  
    34    13    23 ar  
    35    13    40 1   
    36    14    15 1   
    37    15    16 2   
    38    16    28 1   
    39    17    41 1   
    40    18    19 1   
    41    19    20 1   
    42    20    42 1   
    43    20    43 1   
    44    21    22 1   
    45    21    44 1   
    46    21    45 1   
    47    23    46 1   
    48    24    25 1   
    49    26    47 1   
    50    32    48 1   
    51    33    48 1   
@<TRIPOS>SUBSTRUCTURE
     1 Y5I         1 TEMP              0 ****  ****    0 ROOT
