@<TRIPOS>MOLECULE
Y5I
   49    51     1     0     0
SMALL
abcg2


@<TRIPOS>ATOM
      1 C21         16.6960    34.1090     9.2980 ca         1 Y5I      -0.070000
      2 C20         16.4300    32.8100     9.6350 ca         1 Y5I       0.131000
      3 C18         19.7570    28.8340    15.1990 ca         1 Y5I       0.198000
      4 C16         19.2320    30.5810    17.9040 c3         1 Y5I      -0.205400
      5 C14         18.7160    28.8770    16.1190 ca         1 Y5I      -0.107300
      6 C6          18.3840    32.0500     8.4960 ca         1 Y5I      -0.190000
      7 C4          17.8350    34.4060     8.5390 ca         1 Y5I      -0.165500
      8 C2          18.8910    37.9120     7.4140 cc         1 Y5I       0.404700
      9 O3          19.0520    30.0570    20.2290 o          1 Y5I      -0.739000
     10 C1          19.5920    39.0780     6.8220 c3         1 Y5I      -0.129400
     11 C9          17.0640    28.1790     9.9260 c3         1 Y5I      -0.076400
     12 C11         18.2870    28.5110    13.3440 ca         1 Y5I       0.137100
     13 C12         17.2100    28.5360    14.2260 ca         1 Y5I      -0.215000
     14 N1          17.7870    37.9800     8.0830 nd         1 Y5I      -0.318000
     15 N2          17.3440    36.7860     8.5160 nd         1 Y5I      -0.331000
     16 C3          18.1080    35.7930     8.1840 cc         1 Y5I       0.488900
     17 C5          18.6670    33.3640     8.1490 ca         1 Y5I      -0.063000
     18 C7          17.2560    31.7470     9.2490 ca         1 Y5I       0.141100
     19 O1          16.8750    30.5300     9.6380 os         1 Y5I      -0.327100
     20 C8          17.7000    29.4130     9.3220 c3         1 Y5I       0.166600
     21 C10         16.8980    28.2280    11.4310 c3         1 Y5I       0.168600
     22 O2          18.1860    28.3460    12.0130 os         1 Y5I      -0.362100
     23 C13         17.4440    28.7210    15.5840 ca         1 Y5I      -0.063000
     24 C17         19.4640    30.8920    19.3980 c          1 Y5I       0.720000
     25 O4          20.0290    31.9760    19.6460 o          1 Y5I      -0.739000
     26 C19         19.5810    28.6570    13.8450 ca         1 Y5I      -0.200000
     27 F2          15.3410    32.5230    10.3610 f          1 Y5I      -0.162000
     28 S1          19.4880    36.2970     7.2710 ss         1 Y5I      -0.285800
     29 H19         16.0240    34.8930     9.6210 ha         1 Y5I       0.158000
     30 H16         20.0950    30.9300    17.3310 hc         1 Y5I       0.022700
     31 H17         18.3900    31.1910    17.5570 hc         1 Y5I       0.022700
     32 H14         18.0560    28.7940    18.1300 hc         1 Y5I       0.054700
     33 H15         19.7650    28.4910    17.9470 hc         1 Y5I       0.054700
     34 H5          19.0570    31.2690     8.1680 ha         1 Y5I       0.124000
     35 H1          19.6790    38.9760     5.7400 hc         1 Y5I       0.060367
     36 H2          19.0360    39.9870     7.0420 hc         1 Y5I       0.060367
     37 H3          20.5990    39.1800     7.2260 hc         1 Y5I       0.060367
     38 H8          16.0780    28.0160     9.4830 hc         1 Y5I       0.058700
     39 H9          17.6740    27.3170     9.6440 hc         1 Y5I       0.058700
     40 H12         16.1930    28.4130    13.8820 ha         1 Y5I       0.108000
     41 H4          19.5560    33.5530     7.5590 ha         1 Y5I       0.116000
     42 H6          17.7770    29.2980     8.2370 h1         1 Y5I       0.044200
     43 H7          18.7100    29.5680     9.7130 h1         1 Y5I       0.044200
     44 H10         16.2640    29.0710    11.7210 h1         1 Y5I       0.044200
     45 H11         16.4060    27.3120    11.7770 h1         1 Y5I       0.044200
     46 H13         16.5940    28.7400    16.2560 ha         1 Y5I       0.117000
     47 H18         20.4350    28.6330    13.1800 ha         1 Y5I       0.128000
     48 C15         18.9440    29.1150    17.5850 c3         1 Y5I      -0.013100
     49 F1          21.0180    28.9660    15.6510 f          1 Y5I      -0.174000
@<TRIPOS>BOND
     1     1     2 ar  
     2     1     7 ar  
     3     1    29 1   
     4     2    18 ar  
     5     2    27 1   
     6     3     5 ar  
     7     3    26 ar  
     8     3    49 1   
     9     4    24 1   
    10     4    30 1   
    11     4    31 1   
    12     4    48 1   
    13     5    23 ar  
    14     5    48 1   
    15     6    17 ar  
    16     6    18 ar  
    17     6    34 1   
    18     7    16 1   
    19     7    17 ar  
    20     8    10 1   
    21     8    14 2   
    22     8    28 1   
    23     9    24 1   
    24    10    35 1   
    25    10    36 1   
    26    10    37 1   
    27    11    20 1   
    28    11    21 1   
    29    11    38 1   
    30    11    39 1   
    31    12    13 ar  
    32    12    22 1   
    33    12    26 ar  
    34    13    23 ar  
    35    13    40 1   
    36    14    15 1   
    37    15    16 2   
    38    16    28 1   
    39    17    41 1   
    40    18    19 1   
    41    19    20 1   
    42    20    42 1   
    43    20    43 1   
    44    21    22 1   
    45    21    44 1   
    46    21    45 1   
    47    23    46 1   
    48    24    25 1   
    49    26    47 1   
    50    32    48 1   
    51    33    48 1   
@<TRIPOS>SUBSTRUCTURE
     1 Y5I         1 TEMP              0 ****  ****    0 ROOT
