@<TRIPOS>MOLECULE
Y5L
   38    41     1     0     0
SMALL
bcc


@<TRIPOS>ATOM
      1 C02         16.2240   -67.2740   -39.0830 ca         1 Y5L       0.781000
      2 C04         14.4730   -66.8910   -40.3730 ca         1 Y5L       0.465600
      3 C05         15.2840   -66.6150   -41.4600 ca         1 Y5L      -0.364900
      4 C06         14.4510   -66.4390   -42.6990 c5         1 Y5L      -0.014100
      5 C07         13.0320   -66.2260   -42.1380 c5         1 Y5L      -0.081400
      6 C08         13.0260   -66.8780   -40.7500 c5         1 Y5L      -0.137700
      7 C09         16.6660   -66.7060   -41.2320 ca         1 Y5L       0.742200
      8 C11         17.4690   -65.6710   -43.2970 ca         1 Y5L       0.067600
      9 C12         16.8730   -64.4230   -43.2560 ca         1 Y5L      -0.080000
     10 C13         16.7490   -63.6510   -44.4040 ca         1 Y5L      -0.228000
     11 C14         17.2680   -64.1230   -45.6090 ca         1 Y5L       0.165100
     12 C16         16.5850   -62.1880   -46.7980 c3         1 Y5L       0.124700
     13 C17         17.9260   -65.3520   -45.6450 ca         1 Y5L      -0.199000
     14 C18         18.0290   -66.1170   -44.4970 ca         1 Y5L       0.089600
     15 C20         19.2020   -67.9150   -43.3770 c          1 Y5L       0.695500
     16 C21         18.9200   -67.1500   -42.0960 c6         1 Y5L       0.149800
     17 N03         14.9170   -67.2150   -39.1580 nb         1 Y5L      -0.702000
     18 N10         17.6250   -66.5060   -42.1820 nh         1 Y5L      -0.660700
     19 N19         18.6850   -67.3440   -44.4960 ns         1 Y5L      -0.471100
     20 N23         17.1120   -67.0450   -40.0150 nb         1 Y5L      -0.770000
     21 O22         19.8560   -68.9360   -43.4000 o          1 Y5L      -0.597500
     22 CL01        16.8700   -67.7130   -37.5330 cl         1 Y5L      -0.131000
     23 H1          14.5140   -67.3430   -43.3140 hc         1 Y5L       0.060700
     24 H2          14.7570   -65.6110   -43.3340 hc         1 Y5L       0.060700
     25 H3          12.8470   -65.1550   -42.0370 hc         1 Y5L       0.050200
     26 H4          12.2640   -66.6290   -42.7950 hc         1 Y5L       0.050200
     27 H5          12.4120   -66.3480   -40.0210 hc         1 Y5L       0.073700
     28 H6          12.6610   -67.9090   -40.7850 hc         1 Y5L       0.073700
     29 H7          16.4730   -64.0490   -42.3220 ha         1 Y5L       0.147000
     30 H8          16.2560   -62.6920   -44.3340 ha         1 Y5L       0.144000
     31 H9          16.6400   -61.8350   -47.8240 h1         1 Y5L       0.044033
     32 H10         15.5340   -62.2350   -46.4990 h1         1 Y5L       0.044033
     33 H11         17.1040   -61.4750   -46.1520 h1         1 Y5L       0.044033
     34 H12         18.3590   -65.7040   -46.5740 ha         1 Y5L       0.155000
     35 H13         18.9390   -67.8440   -41.2610 h1         1 Y5L       0.096700
     36 H14         19.7180   -66.4160   -41.9380 h1         1 Y5L       0.096700
     37 H15         18.9160   -67.7690   -45.3850 hn         1 Y5L       0.329500
     38 O15         17.1970   -63.4620   -46.7770 os         1 Y5L      -0.313900
@<TRIPOS>BOND
     1     1    17 ar  
     2     1    20 ar  
     3     1    22 1   
     4     2     3 ar  
     5     2     6 1   
     6     2    17 ar  
     7     3     4 1   
     8     3     7 ar  
     9     4     5 1   
    10     4    23 1   
    11     4    24 1   
    12     5     6 1   
    13     5    25 1   
    14     5    26 1   
    15     6    27 1   
    16     6    28 1   
    17     7    18 1   
    18     7    20 ar  
    19     8     9 ar  
    20     8    14 ar  
    21     8    18 1   
    22     9    10 ar  
    23     9    29 1   
    24    10    11 ar  
    25    10    30 1   
    26    11    13 ar  
    27    11    38 1   
    28    12    31 1   
    29    12    32 1   
    30    12    33 1   
    31    12    38 1   
    32    13    14 ar  
    33    13    34 1   
    34    14    19 1   
    35    15    16 1   
    36    15    19 1   
    37    15    21 2   
    38    16    18 1   
    39    16    35 1   
    40    16    36 1   
    41    19    37 1   
@<TRIPOS>SUBSTRUCTURE
     1 Y5L         1 TEMP              0 ****  ****    0 ROOT
