@<TRIPOS>MOLECULE
Y5L
   38    41     1     0     0
SMALL
No Charge or Current Charge


@<TRIPOS>ATOM
      1 C02         16.3200   -66.4080   -38.9580 ca         1 Y5L       0.255000
      2 C04         14.4530   -66.7050   -40.2340 ca         1 Y5L       0.137300
      3 C05         15.2380   -66.7550   -41.3670 ca         1 Y5L      -0.234300
      4 C06         14.4310   -67.0230   -42.6140 c5         1 Y5L      -0.014100
      5 C07         12.9920   -66.6340   -42.1050 c5         1 Y5L      -0.081400
      6 C08         12.9970   -66.9060   -40.5510 c5         1 Y5L      -0.137700
      7 C09         16.6300   -66.6140   -41.2220 ca         1 Y5L       0.413900
      8 C11         17.4820   -65.7430   -43.3980 ca         1 Y5L       0.206000
      9 C12         16.7310   -64.5490   -43.3230 ca         1 Y5L      -0.062000
     10 C13         16.6940   -63.6480   -44.4040 ca         1 Y5L      -0.210000
     11 C14         17.4180   -63.9250   -45.5810 ca         1 Y5L       0.165100
     12 C16         16.6690   -61.8520   -46.6910 c3         1 Y5L       0.147900
     13 C17         18.1810   -65.0990   -45.6600 ca         1 Y5L      -0.181000
     14 C18         18.2210   -65.9990   -44.5800 ca         1 Y5L      -0.003000
     15 C20         19.2180   -68.1030   -43.6890 c          1 Y5L       0.553000
     16 C21         18.5500   -67.7740   -42.3260 c6         1 Y5L       0.149800
     17 N03         14.9740   -66.5280   -39.0070 nb         1 Y5L      -0.176000
     18 N10         17.5190   -66.6680   -42.3120 nh         1 Y5L      -0.799100
     19 N19         19.0100   -67.1660   -44.6780 ns         1 Y5L      -0.145000
     20 N23         17.1770   -66.4490   -40.0010 nb         1 Y5L      -0.244000
     21 O22         19.8850   -69.1150   -43.8770 o          1 Y5L      -0.522000
     22 Cl01        17.0310   -66.1840   -37.3680 cl         1 Y5L      -0.131000
     23 H1          14.4850   -68.0790   -42.9040 hc         1 Y5L       0.060700
     24 H2          14.7320   -66.4280   -43.4820 hc         1 Y5L       0.060700
     25 H3          12.8060   -65.5700   -42.2970 hc         1 Y5L       0.050200
     26 H4          12.2010   -67.1870   -42.6250 hc         1 Y5L       0.050200
     27 H5          12.3410   -66.2170   -40.0060 hc         1 Y5L       0.073700
     28 H6          12.6780   -67.9280   -40.3170 hc         1 Y5L       0.073700
     29 H7          16.1700   -64.3110   -42.4240 ha         1 Y5L       0.129000
     30 H8          16.0990   -62.7440   -44.3060 ha         1 Y5L       0.126000
     31 H9          16.8080   -61.3380   -47.6500 h1         1 Y5L       0.044033
     32 H10         15.5970   -62.0470   -46.5610 h1         1 Y5L       0.044033
     33 H11         17.0050   -61.1780   -45.8930 h1         1 Y5L       0.044033
     34 H12         18.7460   -65.3060   -46.5650 ha         1 Y5L       0.137000
     35 H13         18.1010   -68.7190   -41.9880 h1         1 Y5L       0.096700
     36 H14         19.3760   -67.5310   -41.6430 h1         1 Y5L       0.096700
     37 H15         19.4500   -67.3430   -45.5710 hn         1 Y5L       0.163000
     38 O15         17.4180   -63.0810   -46.6710 os         1 Y5L      -0.337100
@<TRIPOS>BOND
     1     1    17 ar  
     2     1    20 ar  
     3     1    22 1   
     4     2     3 ar  
     5     2     6 1   
     6     2    17 ar  
     7     3     4 1   
     8     3     7 ar  
     9     4     5 1   
    10     4    23 1   
    11     4    24 1   
    12     5     6 1   
    13     5    25 1   
    14     5    26 1   
    15     6    27 1   
    16     6    28 1   
    17     7    18 1   
    18     7    20 ar  
    19     8     9 ar  
    20     8    14 ar  
    21     8    18 1   
    22     9    10 ar  
    23     9    29 1   
    24    10    11 ar  
    25    10    30 1   
    26    11    13 ar  
    27    11    38 1   
    28    12    31 1   
    29    12    32 1   
    30    12    33 1   
    31    12    38 1   
    32    13    14 ar  
    33    13    34 1   
    34    14    19 1   
    35    15    16 1   
    36    15    19 1   
    37    15    21 2   
    38    16    18 1   
    39    16    35 1   
    40    16    36 1   
    41    19    37 1   
@<TRIPOS>SUBSTRUCTURE
     1 Y5L         1 TEMP              0 ****  ****    0 ROOT
