@<TRIPOS>MOLECULE
Y5M
   41    44     1     0     0
SMALL
abcg2


@<TRIPOS>ATOM
      1 C01         17.0120   -67.6080   -37.3080 c3         1 Y5M      -0.134400
      2 C02         16.4260   -67.3000   -38.6500 ca         1 Y5M       0.173300
      3 C04         14.6180   -66.9560   -39.9300 ca         1 Y5M       0.132300
      4 C05         15.3910   -66.7890   -41.0670 ca         1 Y5M      -0.237300
      5 C06         14.5240   -66.6290   -42.2810 c5         1 Y5M      -0.011100
      6 C07         13.1510   -67.1170   -41.7810 c5         1 Y5M      -0.082400
      7 C08         13.1590   -66.8710   -40.2660 c5         1 Y5M      -0.137700
      8 C09         16.7720   -66.8750   -40.8770 ca         1 Y5M       0.402900
      9 C11         17.4830   -65.9340   -43.0190 ca         1 Y5M       0.218000
     10 C12         16.8650   -64.6960   -43.0010 ca         1 Y5M      -0.068000
     11 C13         16.6910   -63.9640   -44.1690 ca         1 Y5M      -0.207000
     12 C14         17.1810   -64.4620   -45.3730 ca         1 Y5M       0.159100
     13 C16         16.4260   -62.5770   -46.5990 c3         1 Y5M       0.147900
     14 C17         17.8590   -65.6810   -45.3920 ca         1 Y5M      -0.178000
     15 C18         18.0080   -66.4080   -44.2250 ca         1 Y5M      -0.009000
     16 C20         19.2300   -68.1700   -43.0960 c          1 Y5M       0.554000
     17 C21         18.9840   -67.3740   -41.8270 c6         1 Y5M       0.151800
     18 N03         15.1000   -67.1910   -38.7180 nb         1 Y5M      -0.195000
     19 N10         17.6890   -66.7310   -41.8870 nh         1 Y5M      -0.806100
     20 N19         18.6770   -67.6290   -44.2120 ns         1 Y5M      -0.144000
     21 N23         17.2620   -67.1530   -39.6650 nb         1 Y5M      -0.254000
     22 O22         19.8880   -69.1900   -43.1140 o          1 Y5M      -0.528000
     23 H1          18.0930   -67.7010   -37.3610 hc         1 Y5M       0.059367
     24 H2          16.7640   -66.8210   -36.5940 hc         1 Y5M       0.059367
     25 H3          16.5990   -68.5370   -36.9120 hc         1 Y5M       0.059367
     26 H4          14.8820   -67.1950   -43.1430 hc         1 Y5M       0.056200
     27 H5          14.4740   -65.5820   -42.5950 hc         1 Y5M       0.056200
     28 H6          12.3260   -66.6180   -42.2860 hc         1 Y5M       0.049700
     29 H7          13.0530   -68.1880   -41.9730 hc         1 Y5M       0.049700
     30 H8          12.7880   -65.8710   -40.0210 hc         1 Y5M       0.068200
     31 H9          12.5580   -67.5850   -39.7030 hc         1 Y5M       0.068200
     32 H10         16.4950   -64.2930   -42.0660 ha         1 Y5M       0.128000
     33 H11         16.1850   -63.0100   -44.1120 ha         1 Y5M       0.124000
     34 H12         16.4410   -62.2550   -47.6370 h1         1 Y5M       0.043033
     35 H13         15.3870   -62.6360   -46.2640 h1         1 Y5M       0.043033
     36 H14         16.9500   -61.8330   -45.9920 h1         1 Y5M       0.043033
     37 H15         18.2680   -66.0560   -46.3230 ha         1 Y5M       0.135000
     38 H16         19.0240   -68.0480   -40.9760 h1         1 Y5M       0.092200
     39 H17         19.7930   -66.6420   -41.7060 h1         1 Y5M       0.092200
     40 H18         18.8820   -68.0770   -45.0960 hn         1 Y5M       0.162000
     41 O15         17.0660   -63.8370   -46.5590 os         1 Y5M      -0.339100
@<TRIPOS>BOND
     1     1     2 1   
     2     1    23 1   
     3     1    24 1   
     4     1    25 1   
     5     2    18 ar  
     6     2    21 ar  
     7     3     4 ar  
     8     3     7 1   
     9     3    18 ar  
    10     4     5 1   
    11     4     8 ar  
    12     5     6 1   
    13     5    26 1   
    14     5    27 1   
    15     6     7 1   
    16     6    28 1   
    17     6    29 1   
    18     7    30 1   
    19     7    31 1   
    20     8    19 1   
    21     8    21 ar  
    22     9    10 ar  
    23     9    15 ar  
    24     9    19 1   
    25    10    11 ar  
    26    10    32 1   
    27    11    12 ar  
    28    11    33 1   
    29    12    14 ar  
    30    12    41 1   
    31    13    34 1   
    32    13    35 1   
    33    13    36 1   
    34    13    41 1   
    35    14    15 ar  
    36    14    37 1   
    37    15    20 1   
    38    16    17 1   
    39    16    20 1   
    40    16    22 2   
    41    17    19 1   
    42    17    38 1   
    43    17    39 1   
    44    20    40 1   
@<TRIPOS>SUBSTRUCTURE
     1 Y5M         1 TEMP              0 ****  ****    0 ROOT
