@<TRIPOS>MOLECULE
Y5M
   41    44     1     0     0
SMALL
No Charge or Current Charge


@<TRIPOS>ATOM
      1 C01         17.1080   -66.7370   -37.2360 c3         1 Y5M      -0.134400
      2 C02         16.4670   -66.8210   -38.6100 ca         1 Y5M       0.173300
      3 C04         14.5650   -66.9560   -39.8700 ca         1 Y5M       0.132300
      4 C05         15.3260   -66.9720   -41.0200 ca         1 Y5M      -0.237300
      5 C06         14.4840   -67.1170   -42.2650 c5         1 Y5M      -0.011100
      6 C07         13.1420   -67.6480   -41.6350 c5         1 Y5M      -0.082400
      7 C08         13.0960   -67.0640   -40.1700 c5         1 Y5M      -0.137700
      8 C09         16.7250   -66.8980   -40.8960 ca         1 Y5M       0.402900
      9 C11         17.4990   -66.0340   -43.1070 ca         1 Y5M       0.218000
     10 C12         16.7790   -64.8240   -43.0070 ca         1 Y5M      -0.068000
     11 C13         16.6830   -63.9450   -44.1030 ca         1 Y5M      -0.207000
     12 C14         17.3210   -64.2610   -45.3200 ca         1 Y5M       0.159100
     13 C16         16.5330   -62.1990   -46.4230 c3         1 Y5M       0.147900
     14 C17         18.0580   -65.4500   -45.4240 ca         1 Y5M      -0.178000
     15 C18         18.1560   -66.3270   -44.3290 ca         1 Y5M      -0.009000
     16 C20         19.1920   -68.4170   -43.4510 c          1 Y5M       0.554000
     17 C21         18.6280   -68.0390   -42.0540 c6         1 Y5M       0.151800
     18 N03         15.1160   -66.8760   -38.6450 nb         1 Y5M      -0.195000
     19 N10         17.5930   -66.9360   -42.0060 nh         1 Y5M      -0.806100
     20 N19         18.9230   -67.5060   -44.4500 ns         1 Y5M      -0.144000
     21 N23         17.2990   -66.8350   -39.6780 nb         1 Y5M      -0.254000
     22 O22         19.8330   -69.4430   -43.6560 o          1 Y5M      -0.528000
     23 H1          18.2030   -66.7290   -37.2950 hc         1 Y5M       0.059367
     24 H2          16.7980   -65.8230   -36.7160 hc         1 Y5M       0.059367
     25 H3          16.8160   -67.5920   -36.6150 hc         1 Y5M       0.059367
     26 H4          14.9070   -67.8160   -42.9950 hc         1 Y5M       0.056200
     27 H5          14.3330   -66.1560   -42.7690 hc         1 Y5M       0.056200
     28 H6          12.2630   -67.3670   -42.2260 hc         1 Y5M       0.049700
     29 H7          13.1570   -68.7440   -41.5990 hc         1 Y5M       0.049700
     30 H8          12.6120   -66.0810   -40.1410 hc         1 Y5M       0.068200
     31 H9          12.5620   -67.7220   -39.4760 hc         1 Y5M       0.068200
     32 H10         16.2890   -64.5560   -42.0760 ha         1 Y5M       0.128000
     33 H11         16.1140   -63.0270   -43.9850 ha         1 Y5M       0.124000
     34 H12         16.6150   -61.7080   -47.4010 h1         1 Y5M       0.043033
     35 H13         15.4690   -62.3720   -46.2180 h1         1 Y5M       0.043033
     36 H14         16.9330   -61.5140   -45.6650 h1         1 Y5M       0.043033
     37 H15         18.5590   -65.6850   -46.3590 ha         1 Y5M       0.135000
     38 H16         18.2100   -68.9720   -41.6470 h1         1 Y5M       0.092200
     39 H17         19.5000   -67.7660   -41.4430 h1         1 Y5M       0.092200
     40 H18         19.2960   -67.7140   -45.3660 hn         1 Y5M       0.162000
     41 O15         17.2620   -63.4400   -46.4270 os         1 Y5M      -0.339100
@<TRIPOS>BOND
     1     1     2 1   
     2     1    23 1   
     3     1    24 1   
     4     1    25 1   
     5     2    18 ar  
     6     2    21 ar  
     7     3     4 ar  
     8     3     7 1   
     9     3    18 ar  
    10     4     5 1   
    11     4     8 ar  
    12     5     6 1   
    13     5    26 1   
    14     5    27 1   
    15     6     7 1   
    16     6    28 1   
    17     6    29 1   
    18     7    30 1   
    19     7    31 1   
    20     8    19 1   
    21     8    21 ar  
    22     9    10 ar  
    23     9    15 ar  
    24     9    19 1   
    25    10    11 ar  
    26    10    32 1   
    27    11    12 ar  
    28    11    33 1   
    29    12    14 ar  
    30    12    41 1   
    31    13    34 1   
    32    13    35 1   
    33    13    36 1   
    34    13    41 1   
    35    14    15 ar  
    36    14    37 1   
    37    15    20 1   
    38    16    17 1   
    39    16    20 1   
    40    16    22 2   
    41    17    19 1   
    42    17    38 1   
    43    17    39 1   
    44    20    40 1   
@<TRIPOS>SUBSTRUCTURE
     1 Y5M         1 TEMP              0 ****  ****    0 ROOT
