@<TRIPOS>MOLECULE
Y5N
   39    41     1     0     0
SMALL
No Charge or Current Charge


@<TRIPOS>ATOM
      1 C4         -30.8350    22.2330   -24.1890 ca         1 Y5N      -0.190000
      2 C5         -29.4910    21.8360   -24.2640 ca         1 Y5N       0.338000
      3 C8         -29.4380    18.3610   -26.4830 ca         1 Y5N      -0.091300
      4 C10        -31.6840    17.8130   -27.2680 ca         1 Y5N      -0.104500
      5 C13        -29.5750    17.4040   -25.4580 ca         1 Y5N      -0.107500
      6 C17        -26.4960    21.9500   -26.5690 ca         1 Y5N       0.375900
      7 Cl1        -27.9580    23.3530   -20.8390 cl         1 Y5N      -0.214000
      8 C1         -29.0700    22.9210   -22.1300 ca         1 Y5N       0.168000
      9 C2         -30.4150    23.3160   -22.0560 ca         1 Y5N      -0.157000
     10 C3         -31.3020    22.9720   -23.0880 ca         1 Y5N      -0.056000
     11 N          -29.0750    21.1060   -25.3760 nu         1 Y5N      -0.975200
     12 CA         -27.9410    20.1750   -25.4450 c3         1 Y5N       0.294800
     13 C          -28.1510    19.1750   -26.6070 c3         1 Y5N      -0.045100
     14 C9         -30.4980    18.5590   -27.3890 ca         1 Y5N      -0.107500
     15 C11        -31.8150    16.8620   -26.2420 ca         1 Y5N      -0.105000
     16 C12        -30.7600    16.6570   -25.3370 ca         1 Y5N      -0.104500
     17 CB         -26.6310    20.9350   -25.5990 ca         1 Y5N      -0.158300
     18 CG         -25.5250    20.6340   -24.7810 ca         1 Y5N      -0.067000
     19 CD         -24.3410    21.3650   -24.9680 ca         1 Y5N      -0.150000
     20 NZ         -25.3530    22.6540   -26.7550 nb         1 Y5N      -0.659000
     21 CE         -24.3030    22.3580   -25.9590 ca         1 Y5N       0.445000
     22 Cl2        -22.8390    23.2920   -26.2250 cl         1 Y5N      -0.169000
     23 C19        -28.6080    22.1840   -23.2290 ca         1 Y5N      -0.186000
     24 H3         -31.5250    21.9690   -24.9860 ha         1 Y5N       0.113000
     25 H9         -32.4990    17.9710   -27.9710 ha         1 Y5N       0.115500
     26 H12        -28.7640    17.2370   -24.7520 ha         1 Y5N       0.110000
     27 H15        -27.3270    22.2080   -27.2250 h4         1 Y5N       0.037100
     28 H1         -30.7670    23.8870   -21.2010 ha         1 Y5N       0.130000
     29 H2         -32.3460    23.2760   -23.0360 ha         1 Y5N       0.114000
     30 H4         -29.8290    20.8960   -26.0300 hn         1 Y5N       0.488000
     31 H5         -27.9040    19.5920   -24.5130 h1         1 Y5N       0.057700
     32 H6         -28.1330    19.7190   -27.5590 hc         1 Y5N       0.062200
     33 H7         -27.2920    18.4930   -26.6350 hc         1 Y5N       0.062200
     34 H8         -30.4080    19.2910   -28.1880 ha         1 Y5N       0.110000
     35 H10        -32.7330    16.2850   -26.1490 ha         1 Y5N       0.116000
     36 H11        -30.8610    15.9210   -24.5430 ha         1 Y5N       0.115500
     37 H13        -25.5810    19.8570   -24.0200 ha         1 Y5N       0.121000
     38 H14        -23.4630    21.1690   -24.3590 ha         1 Y5N       0.140000
     39 H16        -27.5660    21.8920   -23.2660 ha         1 Y5N       0.130000
@<TRIPOS>BOND
     1     1     2 ar  
     2     1    10 ar  
     3     1    24 1   
     4     2    11 1   
     5     2    23 ar  
     6     3     5 ar  
     7     3    13 1   
     8     3    14 ar  
     9     4    14 ar  
    10     4    15 ar  
    11     4    25 1   
    12     5    16 ar  
    13     5    26 1   
    14     6    17 ar  
    15     6    20 ar  
    16     6    27 1   
    17     7     8 1   
    18     8     9 ar  
    19     8    23 ar  
    20     9    10 ar  
    21     9    28 1   
    22    10    29 1   
    23    11    12 1   
    24    11    30 1   
    25    12    13 1   
    26    12    17 1   
    27    12    31 1   
    28    13    32 1   
    29    13    33 1   
    30    14    34 1   
    31    15    16 ar  
    32    15    35 1   
    33    16    36 1   
    34    17    18 ar  
    35    18    19 ar  
    36    18    37 1   
    37    19    21 ar  
    38    19    38 1   
    39    20    21 ar  
    40    21    22 1   
    41    23    39 1   
@<TRIPOS>SUBSTRUCTURE
     1 Y5N         1 TEMP              0 ****  ****    0 ROOT
