@<TRIPOS>MOLECULE
Y5N
   39    41     1     0     0
SMALL
abcg2


@<TRIPOS>ATOM
      1 C4         -30.8400    22.4660   -24.3960 ca         1 Y5N      -0.190000
      2 C5         -29.5690    21.8690   -24.3760 ca         1 Y5N       0.338000
      3 C8         -29.3640    18.3750   -26.4210 ca         1 Y5N      -0.091300
      4 C10        -31.6260    17.7850   -27.0470 ca         1 Y5N      -0.104500
      5 C13        -29.4020    17.3820   -25.4430 ca         1 Y5N      -0.107500
      6 C17        -26.5730    22.2330   -26.1790 ca         1 Y5N       0.375900
      7 CL1        -28.2450    22.9580   -20.7690 cl         1 Y5N      -0.214000
      8 C1         -29.2600    22.7700   -22.1670 ca         1 Y5N       0.168000
      9 C2         -30.5110    23.3600   -22.1730 ca         1 Y5N      -0.157000
     10 C3         -31.2920    23.1920   -23.3130 ca         1 Y5N      -0.056000
     11 N          -29.1370    21.1650   -25.4660 nu         1 Y5N      -0.975200
     12 CA         -28.0100    20.2710   -25.4410 c3         1 Y5N       0.294800
     13 C          -28.1430    19.2390   -26.5740 c3         1 Y5N      -0.045100
     14 C9         -30.4870    18.5630   -27.2210 ca         1 Y5N      -0.107500
     15 C11        -31.6540    16.8040   -26.0670 ca         1 Y5N      -0.105000
     16 C12        -30.5350    16.6020   -25.2660 ca         1 Y5N      -0.104500
     17 CB         -26.6870    20.9940   -25.5660 ca         1 Y5N      -0.158300
     18 CG         -25.5160    20.4090   -25.0930 ca         1 Y5N      -0.067000
     19 CD         -24.3060    21.0570   -25.2540 ca         1 Y5N      -0.150000
     20 NZ         -25.4150    22.8690   -26.3410 nb         1 Y5N      -0.659000
     21 CE         -24.3310    22.2880   -25.8930 ca         1 Y5N       0.445000
     22 CL2        -22.8360    23.1420   -26.1240 cl         1 Y5N      -0.169000
     23 C19        -28.7730    22.0320   -23.2350 ca         1 Y5N      -0.186000
     24 H3         -31.4710    22.3460   -25.2680 ha         1 Y5N       0.113000
     25 H9         -32.4900    17.9480   -27.6780 ha         1 Y5N       0.115500
     26 H12        -28.5340    17.2160   -24.8140 ha         1 Y5N       0.110000
     27 H15        -27.4530    22.7420   -26.5530 h4         1 Y5N       0.037100
     28 H1         -30.8680    23.9280   -21.3270 ha         1 Y5N       0.130000
     29 H2         -32.2770    23.6390   -23.3490 ha         1 Y5N       0.114000
     30 H4         -29.8260    21.0060   -26.1840 hn         1 Y5N       0.488000
     31 H5         -27.9970    19.7140   -24.4930 h1         1 Y5N       0.057700
     32 H6         -28.1610    19.7650   -27.5330 hc         1 Y5N       0.062200
     33 H7         -27.2430    18.6220   -26.5700 hc         1 Y5N       0.062200
     34 H8         -30.4730    19.3230   -27.9950 ha         1 Y5N       0.110000
     35 H10        -32.5380    16.1950   -25.9290 ha         1 Y5N       0.116000
     36 H11        -30.5460    15.8330   -24.5040 ha         1 Y5N       0.115500
     37 H13        -25.5480    19.4470   -24.5960 ha         1 Y5N       0.121000
     38 H14        -23.3820    20.6270   -24.8950 ha         1 Y5N       0.140000
     39 H16        -27.7820    21.6020   -23.1750 ha         1 Y5N       0.130000
@<TRIPOS>BOND
     1     1     2 ar  
     2     1    10 ar  
     3     1    24 1   
     4     2    11 1   
     5     2    23 ar  
     6     3     5 ar  
     7     3    13 1   
     8     3    14 ar  
     9     4    14 ar  
    10     4    15 ar  
    11     4    25 1   
    12     5    16 ar  
    13     5    26 1   
    14     6    17 ar  
    15     6    20 ar  
    16     6    27 1   
    17     7     8 1   
    18     8     9 ar  
    19     8    23 ar  
    20     9    10 ar  
    21     9    28 1   
    22    10    29 1   
    23    11    12 1   
    24    11    30 1   
    25    12    13 1   
    26    12    17 1   
    27    12    31 1   
    28    13    32 1   
    29    13    33 1   
    30    14    34 1   
    31    15    16 ar  
    32    15    35 1   
    33    16    36 1   
    34    17    18 ar  
    35    18    19 ar  
    36    18    37 1   
    37    19    21 ar  
    38    19    38 1   
    39    20    21 ar  
    40    21    22 1   
    41    23    39 1   
@<TRIPOS>SUBSTRUCTURE
     1 Y5N         1 TEMP              0 ****  ****    0 ROOT
