@<TRIPOS>MOLECULE
Y5O
   28    29     1     0     0
SMALL
abcg2


@<TRIPOS>ATOM
      1 C16         -5.6250     1.2620    16.1830 ca         1 Y5O      -0.018000
      2 C12         -5.1580     0.8650    14.9410 ca         1 Y5O      -0.186200
      3 C11         -5.5510     1.5090    13.7790 ca         1 Y5O      -0.020000
      4 C10         -6.4430     2.5680    13.8530 ca         1 Y5O      -0.168600
      5 C17         -6.5040     2.3250    16.2590 ca         1 Y5O      -0.121000
      6 C18         -6.9160     2.9680    15.1020 ca         1 Y5O       0.191000
      7 C03         -5.9110     5.5360     8.1460 ca         1 Y5O       0.399000
      8 C04         -7.1530     5.2020     8.6590 ca         1 Y5O      -0.091000
      9 C05         -7.2240     4.5780     9.8930 ca         1 Y5O      -0.105000
     10 C06         -6.0360     4.3100    10.5670 ca         1 Y5O      -0.057000
     11 C08         -6.9330     3.2110    12.5890 c          1 Y5O       0.627700
     12 C20         -4.8320     4.6890     9.9480 ca         1 Y5O       0.291900
     13 N01         -5.7180     6.7100     5.8500 n1         1 Y5O      -0.431000
     14 N07         -5.9330     3.7010    11.8090 ns         1 Y5O      -0.135000
     15 N13         -4.2310    -0.2540    14.8510 no         1 Y5O       0.697200
     16 N21         -4.7680     5.2830     8.7800 nb         1 Y5O      -0.608000
     17 O09         -8.1120     3.2580    12.3180 o          1 Y5O      -0.536100
     18 O14         -3.8340    -0.5700    13.7550 o          1 Y5O      -0.388000
     19 O15         -3.9110    -0.8030    15.8770 o          1 Y5O      -0.388000
     20 H1          -5.3130     0.7620    17.0890 ha         1 Y5O       0.162000
     21 H2          -5.1790     1.1830    12.8160 ha         1 Y5O       0.161000
     22 H3          -6.8670     2.6550    17.2230 ha         1 Y5O       0.150000
     23 H5          -8.0570     5.4260     8.1080 ha         1 Y5O       0.141000
     24 H6          -8.1850     4.3170    10.3030 ha         1 Y5O       0.160000
     25 H7          -3.8870     4.4920    10.4450 h4         1 Y5O       0.024100
     26 H8          -4.9970     3.6410    12.1850 hn         1 Y5O       0.164000
     27 CL1         -7.9890     4.3030    15.2450 cl         1 Y5O      -0.138000
     28 C02         -5.8000     6.1880     6.8730 cg         1 Y5O       0.224000
@<TRIPOS>BOND
     1     1     2 ar  
     2     1     5 ar  
     3     1    20 1   
     4     2     3 ar  
     5     2    15 1   
     6     3     4 ar  
     7     3    21 1   
     8     4     6 ar  
     9     4    11 1   
    10     5     6 ar  
    11     5    22 1   
    12     6    27 1   
    13     7     8 ar  
    14     7    16 ar  
    15     7    28 1   
    16     8     9 ar  
    17     8    23 1   
    18     9    10 ar  
    19     9    24 1   
    20    10    12 ar  
    21    10    14 1   
    22    11    14 1   
    23    11    17 2   
    24    12    16 ar  
    25    12    25 1   
    26    13    28 3   
    27    14    26 1   
    28    15    18 1   
    29    15    19 1   
@<TRIPOS>SUBSTRUCTURE
     1 Y5O         1 TEMP              0 ****  ****    0 ROOT
