@<TRIPOS>MOLECULE
Y5O
   28    29     1     0     0
SMALL
No Charge or Current Charge


@<TRIPOS>ATOM
      1 C16         -5.6670     1.1630    16.2230 ca         1 Y5O      -0.018000
      2 C12         -5.0320     0.9690    14.9780 ca         1 Y5O      -0.186200
      3 C11         -5.4780     1.7040    13.8530 ca         1 Y5O      -0.020000
      4 C10         -6.5500     2.6290    13.9570 ca         1 Y5O      -0.168600
      5 C17         -6.7250     2.0750    16.3350 ca         1 Y5O      -0.121000
      6 C18         -7.1700     2.8040    15.2210 ca         1 Y5O       0.191000
      7 C03         -5.8630     5.4380     7.9940 ca         1 Y5O       0.399000
      8 C04         -7.0970     5.4540     8.6700 ca         1 Y5O      -0.091000
      9 C05         -7.2010     4.8580     9.9400 ca         1 Y5O      -0.105000
     10 C06         -6.0520     4.2560    10.4990 ca         1 Y5O      -0.057000
     11 C08         -7.0120     3.3900    12.7300 c          1 Y5O       0.627700
     12 C20         -4.8570     4.2910     9.7460 ca         1 Y5O       0.291900
     13 N01         -5.6500     6.5410     5.6320 n1         1 Y5O      -0.431000
     14 N07         -6.0250     3.6210    11.7770 ns         1 Y5O      -0.135000
     15 N13         -3.9020    -0.0090    14.8510 no         1 Y5O       0.697200
     16 N21         -4.7520     4.8630     8.5250 nb         1 Y5O      -0.608000
     17 O09         -8.1800     3.7190    12.5680 o          1 Y5O      -0.536100
     18 O14         -3.3600    -0.1370    13.7450 o          1 Y5O      -0.388000
     19 O15         -3.5600    -0.6420    15.8580 o          1 Y5O      -0.388000
     20 H1          -5.3470     0.6150    17.1080 ha         1 Y5O       0.162000
     21 H2          -5.0020     1.5300    12.8890 ha         1 Y5O       0.161000
     22 H3          -7.2030     2.2260    17.2990 ha         1 Y5O       0.150000
     23 H5          -7.9640     5.9260     8.2130 ha         1 Y5O       0.141000
     24 H6          -8.1580     4.8800    10.4550 ha         1 Y5O       0.160000
     25 H7          -3.9450     3.8410    10.1380 h4         1 Y5O       0.024100
     26 H8          -5.1070     3.2960    12.0500 hn         1 Y5O       0.164000
     27 Cl1         -8.4680     3.9690    15.5030 cl         1 Y5O      -0.138000
     28 C02         -5.7390     6.0450     6.6890 cg         1 Y5O       0.224000
@<TRIPOS>BOND
     1     1     2 ar  
     2     1     5 ar  
     3     1    20 1   
     4     2     3 ar  
     5     2    15 1   
     6     3     4 ar  
     7     3    21 1   
     8     4     6 ar  
     9     4    11 1   
    10     5     6 ar  
    11     5    22 1   
    12     6    27 1   
    13     7     8 ar  
    14     7    16 ar  
    15     7    28 1   
    16     8     9 ar  
    17     8    23 1   
    18     9    10 ar  
    19     9    24 1   
    20    10    12 ar  
    21    10    14 1   
    22    11    14 1   
    23    11    17 2   
    24    12    16 ar  
    25    12    25 1   
    26    13    28 3   
    27    14    26 1   
    28    15    18 1   
    29    15    19 1   
@<TRIPOS>SUBSTRUCTURE
     1 Y5O         1 TEMP              0 ****  ****    0 ROOT
