@<TRIPOS>MOLECULE
Y5Q
  131   137     1     0     0
SMALL
abcg2


@<TRIPOS>ATOM
      1 CCI         23.4930    -6.4700     3.3770 c3         1 Y5Q      -0.127400
      2 CCH         24.3980    -6.2210     2.2190 cc         1 Y5Q       0.324300
      3 NCJ         25.7480    -6.1820     2.4420 nc         1 Y5Q      -0.621000
      4 CCK         26.4060    -5.9320     1.3590 cd         1 Y5Q       0.425300
      5 SCL         25.4380    -5.7290    -0.0390 ss         1 Y5Q      -0.075400
      6 CCG         24.0250    -5.9990     0.9180 cd         1 Y5Q      -0.192000
      7 CCD         22.6880    -5.9330     0.3300 ca         1 Y5Q       0.011000
      8 CCE         21.6800    -6.8080     0.7300 ca         1 Y5Q      -0.105000
      9 CCF         20.3900    -6.6730     0.2380 ca         1 Y5Q      -0.091000
     10 CCC         22.3790    -4.9690    -0.6360 ca         1 Y5Q      -0.105000
     11 CCB         21.0960    -4.8460    -1.1330 ca         1 Y5Q      -0.091000
     12 CCA         20.0740    -5.6810    -0.6810 ca         1 Y5Q      -0.119300
     13 CBZ         18.6540    -5.4710    -1.1400 c3         1 Y5Q       0.149300
     14 NBY         18.1160    -4.2090    -0.6750 ns         1 Y5Q      -0.494900
     15 CBW         18.0780    -3.0960    -1.4220 c          1 Y5Q       0.604100
     16 OBX         18.4580    -3.0420    -2.5810 o          1 Y5Q      -0.603100
     17 CBV         17.4190    -1.8990    -0.7450 c5         1 Y5Q       0.034700
     18 CBU         15.9760    -1.7300    -1.2370 c5         1 Y5Q      -0.127400
     19 CBS         15.7550    -0.2230    -1.1870 c5         1 Y5Q       0.153300
     20 OBT         15.5590     0.2440     0.1280 oh         1 Y5Q      -0.653000
     21 CBR         17.0900     0.3090    -1.6770 c5         1 Y5Q       0.107000
     22 NBQ         18.0510    -0.6490    -1.1360 n          1 Y5Q      -0.388800
     23 CBO         19.3580    -0.4650    -0.8970 c          1 Y5Q       0.611100
     24 OBP         20.0130    -1.3100    -0.2950 o          1 Y5Q      -0.630100
     25 CBN         20.0220     0.8120    -1.4040 c3         1 Y5Q       0.046700
     26 CCM         20.8360     0.5870    -2.7130 c3         1 Y5Q      -0.046000
     27 CCO         21.4090     1.9360    -3.1510 c3         1 Y5Q      -0.091433
     28 CCP         21.9820    -0.4110    -2.5390 c3         1 Y5Q      -0.091433
     29 CCN         19.8920     0.0890    -3.8100 c3         1 Y5Q      -0.091433
     30 NBM         20.8220     1.3630    -0.3360 ns         1 Y5Q      -0.487900
     31 CBK         20.6230     2.5900     0.1710 c          1 Y5Q       0.567100
     32 OBL         19.7310     3.3490    -0.1800 o          1 Y5Q      -0.616100
     33 CBJ         21.5710     3.0090     1.2870 c3         1 Y5Q       0.066600
     34 OBI         22.7300     2.2370     1.4030 os         1 Y5Q      -0.438000
     35 CBH         23.7350     2.5960     0.4780 c3         1 Y5Q       0.146600
     36 CBG         24.9070     1.6650     0.6330 c3         1 Y5Q       0.159600
     37 OBF         24.4940     0.3460     0.3750 os         1 Y5Q      -0.452000
     38 CBE         25.5540    -0.5700     0.3950 c3         1 Y5Q       0.141600
     39 CBD         25.0020    -1.9700     0.2620 c3         1 Y5Q       0.082600
     40 NBC         24.1890    -2.3630     1.3960 na         1 Y5Q       0.122800
     41 CBB         22.8530    -2.4630     1.4810 cc         1 Y5Q      -0.172000
     42 NCQ         24.7600    -2.6960     2.5410 nc         1 Y5Q      -0.215800
     43 NCR         23.8300    -3.0190     3.3690 nd         1 Y5Q      -0.341000
     44 CBA         22.6280    -2.9000     2.7620 cd         1 Y5Q       0.172300
     45 CAB         21.3570    -3.2930     3.4440 c3         1 Y5Q       0.087400
     46 CAA         20.2150    -3.5650     2.4740 c3         1 Y5Q      -0.118100
     47 NAC         20.9720    -2.3130     4.4680 n          1 Y5Q      -0.383800
     48 C           20.5990    -2.8020     5.6710 c          1 Y5Q       0.565000
     49 O           20.5650    -4.0040     5.9070 o          1 Y5Q      -0.578000
     50 CAD         20.7840    -0.9470     3.9900 c3         1 Y5Q       0.123000
     51 CAE         19.4040    -0.3710     4.3040 c3         1 Y5Q      -0.058500
     52 CAF         19.0870     0.7640     3.3780 c2         1 Y5Q      -0.235200
     53 CAG         18.1160     0.7530     2.4740 c2         1 Y5Q      -0.292000
     54 CAH         19.2970     0.1150     5.7690 c6         1 Y5Q       0.246500
     55 CAI         17.9340    -0.1950     6.3820 c6         1 Y5Q      -0.094400
     56 CAJ         17.7670    -1.6860     6.6550 c6         1 Y5Q      -0.074400
     57 CB          18.9250    -2.2150     7.4890 c6         1 Y5Q      -0.083400
     58 CA          20.2810    -1.8880     6.8560 c6         1 Y5Q       0.162500
     59 N           20.3720    -0.4670     6.5750 n3         1 Y5Q      -0.783500
     60 SAN         21.2750     0.5210     7.5290 sy         1 Y5Q       1.188600
     61 OAO         20.4510     1.5560     8.1310 o          1 Y5Q      -0.537000
     62 OAP         22.1010    -0.3190     8.3790 o          1 Y5Q      -0.537000
     63 CAQ         22.3410     1.3340     6.3590 ca         1 Y5Q      -0.260500
     64 CAR         22.0230     2.6080     5.9210 ca         1 Y5Q      -0.006000
     65 CAS         22.8460     3.1900     4.9680 ca         1 Y5Q       0.102000
     66 CLAT        22.4760     4.7740     4.3950 cl         1 Y5Q      -0.183000
     67 CAU         23.9570     2.5340     4.4680 ca         1 Y5Q      -0.044000
     68 CAV         24.2430     1.2620     4.9410 ca         1 Y5Q       0.102000
     69 CLAW        25.6280     0.4320     4.3320 cl         1 Y5Q      -0.183000
     70 CAX         23.4460     0.6410     5.8860 ca         1 Y5Q      -0.006000
     71 HCI         23.8680    -5.9590     4.2630 hc         1 Y5Q       0.057700
     72 HCJ         22.4820    -6.1180     3.1860 hc         1 Y5Q       0.057700
     73 HCK         23.4310    -7.5350     3.6110 hc         1 Y5Q       0.057700
     74 HCL         27.4830    -5.8540     1.3080 h5         1 Y5Q       0.051100
     75 HCE         21.8990    -7.6030     1.4310 ha         1 Y5Q       0.116000
     76 HCF         19.6170    -7.3500     0.5840 ha         1 Y5Q       0.122000
     77 HCC         23.1440    -4.2860    -0.9850 ha         1 Y5Q       0.116000
     78 HCB         20.8860    -4.0800    -1.8680 ha         1 Y5Q       0.122000
     79 HCA         18.0180    -6.2740    -0.7660 h1         1 Y5Q       0.064200
     80 HBZ         18.5900    -5.4910    -2.2280 h1         1 Y5Q       0.064200
     81 HBY         17.8530    -4.1500     0.2960 hn         1 Y5Q       0.316500
     82 HBV         17.4470    -2.0120     0.3440 h1         1 Y5Q       0.070700
     83 HBU         15.2620    -2.2940    -0.6360 hc         1 Y5Q       0.068700
     84 HB9         15.8840    -2.0680    -2.2710 hc         1 Y5Q       0.068700
     85 HBS         14.9420     0.0890    -1.8510 h1         1 Y5Q       0.056700
     86 HBT         14.7780    -0.1880     0.4910 ho         1 Y5Q       0.447000
     87 HB8         17.2730     1.3210    -1.3170 h1         1 Y5Q       0.071700
     88 HBR         17.1130     0.3230    -2.7690 h1         1 Y5Q       0.071700
     89 HBN         19.2690     1.5630    -1.6360 h1         1 Y5Q       0.088700
     90 HCS         22.1320     2.3330    -2.4380 hc         1 Y5Q       0.040700
     91 HCQ         21.9230     1.8270    -4.1080 hc         1 Y5Q       0.040700
     92 HCR         20.6220     2.6810    -3.2830 hc         1 Y5Q       0.040700
     93 HCV         22.6790    -0.1160    -1.7520 hc         1 Y5Q       0.040700
     94 HCT         21.6250    -1.4160    -2.3180 hc         1 Y5Q       0.040700
     95 HCU         22.5540    -0.4630    -3.4670 hc         1 Y5Q       0.040700
     96 HCN         19.4450    -0.8750    -3.5710 hc         1 Y5Q       0.040700
     97 HCO         19.0880     0.8050    -3.9920 hc         1 Y5Q       0.040700
     98 HCP         20.4430    -0.0260    -4.7450 hc         1 Y5Q       0.040700
     99 HBM         21.5630     0.8010     0.0570 hn         1 Y5Q       0.349500
    100 HBJ         21.7930     4.0740     1.1490 h1         1 Y5Q       0.077700
    101 HB7         21.0220     2.9240     2.2290 h1         1 Y5Q       0.077700
    102 HB6         24.0790     3.6230     0.6550 h1         1 Y5Q       0.039700
    103 HBH         23.3610     2.5540    -0.5530 h1         1 Y5Q       0.039700
    104 HB5         25.3310     1.7470     1.6430 h1         1 Y5Q       0.036700
    105 HBG         25.6880     1.9860    -0.0690 h1         1 Y5Q       0.036700
    106 HB4         26.1360    -0.4880     1.3220 h1         1 Y5Q       0.042700
    107 HBE         26.2500    -0.3970    -0.4370 h1         1 Y5Q       0.042700
    108 HBD         24.3870    -2.0610    -0.6330 h1         1 Y5Q       0.075200
    109 HB3         25.8240    -2.6790     0.1720 h1         1 Y5Q       0.075200
    110 HBB         22.1910    -2.2330     0.6630 h4         1 Y5Q       0.189000
    111 HAD         21.5640    -4.2180     3.9780 h1         1 Y5Q       0.101700
    112 HAA         19.3400    -3.9100     3.0230 hc         1 Y5Q       0.046700
    113 HAB         19.9270    -2.6850     1.8990 hc         1 Y5Q       0.046700
    114 HAC         20.4960    -4.3430     1.7650 hc         1 Y5Q       0.046700
    115 HAE         21.5790    -0.2870     4.3380 h1         1 Y5Q       0.058700
    116 HAF         20.8880    -0.9810     2.9070 h1         1 Y5Q       0.058700
    117 HAG         18.6720    -1.1640     4.1180 hc         1 Y5Q       0.062700
    118 HAH         19.7150     1.6460     3.4790 ha         1 Y5Q       0.164000
    119 HAI         17.9380     1.6010     1.8250 ha         1 Y5Q       0.169500
    120 HAJ         17.4620    -0.1020     2.3470 ha         1 Y5Q       0.169500
    121 HAK         19.4340     1.1990     5.7680 h1         1 Y5Q       0.060700
    122 HAM         17.8330     0.3620     7.3170 hc         1 Y5Q       0.057700
    123 HAL         17.1540     0.1670     5.7090 hc         1 Y5Q       0.057700
    124 HAN         16.8250    -1.8630     7.1750 hc         1 Y5Q       0.045200
    125 HAO         17.7010    -2.2440     5.7150 hc         1 Y5Q       0.045200
    126 HB2         18.8410    -3.2900     7.6450 hc         1 Y5Q       0.063700
    127 HB1         18.9080    -1.7490     8.4780 hc         1 Y5Q       0.063700
    128 HA          21.0580    -2.1410     7.5770 h1         1 Y5Q       0.111700
    129 HAR         21.1640     3.1390     6.3040 ha         1 Y5Q       0.159000
    130 HAU         24.5910     3.0060     3.7320 ha         1 Y5Q       0.140000
    131 HAX         23.6800    -0.3550     6.2360 ha         1 Y5Q       0.159000
@<TRIPOS>BOND
     1     1     2 1   
     2     1    71 1   
     3     1    72 1   
     4     1    73 1   
     5     2     3 1   
     6     2     6 2   
     7     3     4 2   
     8     4     5 1   
     9     4    74 1   
    10     5     6 1   
    11     6     7 1   
    12     7     8 ar  
    13     7    10 ar  
    14     8     9 ar  
    15     8    75 1   
    16     9    12 ar  
    17     9    76 1   
    18    10    11 ar  
    19    10    77 1   
    20    11    12 ar  
    21    11    78 1   
    22    12    13 1   
    23    13    14 1   
    24    13    79 1   
    25    13    80 1   
    26    14    15 1   
    27    14    81 1   
    28    15    16 2   
    29    15    17 1   
    30    17    18 1   
    31    17    22 1   
    32    17    82 1   
    33    18    19 1   
    34    18    83 1   
    35    18    84 1   
    36    19    20 1   
    37    19    21 1   
    38    19    85 1   
    39    20    86 1   
    40    21    22 1   
    41    21    87 1   
    42    21    88 1   
    43    22    23 1   
    44    23    24 2   
    45    23    25 1   
    46    25    26 1   
    47    25    30 1   
    48    25    89 1   
    49    26    27 1   
    50    26    28 1   
    51    26    29 1   
    52    27    90 1   
    53    27    91 1   
    54    27    92 1   
    55    28    93 1   
    56    28    94 1   
    57    28    95 1   
    58    29    96 1   
    59    29    97 1   
    60    29    98 1   
    61    30    31 1   
    62    30    99 1   
    63    31    32 2   
    64    31    33 1   
    65    33    34 1   
    66    33   100 1   
    67    33   101 1   
    68    34    35 1   
    69    35    36 1   
    70    35   102 1   
    71    35   103 1   
    72    36    37 1   
    73    36   104 1   
    74    36   105 1   
    75    37    38 1   
    76    38    39 1   
    77    38   106 1   
    78    38   107 1   
    79    39    40 1   
    80    39   108 1   
    81    39   109 1   
    82    40    41 1   
    83    40    42 1   
    84    41    44 2   
    85    41   110 1   
    86    42    43 2   
    87    43    44 1   
    88    44    45 1   
    89    45    46 1   
    90    45    47 1   
    91    45   111 1   
    92    46   112 1   
    93    46   113 1   
    94    46   114 1   
    95    47    48 1   
    96    47    50 1   
    97    48    49 2   
    98    48    58 1   
    99    50    51 1   
   100    50   115 1   
   101    50   116 1   
   102    51    52 1   
   103    51    54 1   
   104    51   117 1   
   105    52    53 2   
   106    52   118 1   
   107    53   119 1   
   108    53   120 1   
   109    54    55 1   
   110    54    59 1   
   111    54   121 1   
   112    55    56 1   
   113    55   122 1   
   114    55   123 1   
   115    56    57 1   
   116    56   124 1   
   117    56   125 1   
   118    57    58 1   
   119    57   126 1   
   120    57   127 1   
   121    58    59 1   
   122    58   128 1   
   123    59    60 1   
   124    60    61 2   
   125    60    62 2   
   126    60    63 1   
   127    63    64 ar  
   128    63    70 ar  
   129    64    65 ar  
   130    64   129 1   
   131    65    66 1   
   132    65    67 ar  
   133    67    68 ar  
   134    67   130 1   
   135    68    69 1   
   136    68    70 ar  
   137    70   131 1   
@<TRIPOS>SUBSTRUCTURE
     1 Y5Q         1 TEMP              0 ****  ****    0 ROOT
