@<TRIPOS>MOLECULE
Y5Q
  131   137     1     0     0
SMALL
No Charge or Current Charge


@<TRIPOS>ATOM
      1 CCI         23.8620    -6.8830     3.5180 c3         1 Y5Q      -0.127400
      2 CCH         24.7220    -6.7240     2.2930 cc         1 Y5Q       0.324300
      3 NCJ         26.0690    -6.9120     2.4770 nc         1 Y5Q      -0.621000
      4 CCK         26.7300    -6.7160     1.3460 cd         1 Y5Q       0.425300
      5 SCL         25.7460    -6.2700    -0.0370 ss         1 Y5Q      -0.075400
      6 CCG         24.3340    -6.3660     1.0100 cd         1 Y5Q      -0.192000
      7 CCD         22.9720    -6.2170     0.4350 ca         1 Y5Q       0.011000
      8 CCE         21.8230    -6.7730     1.0430 ca         1 Y5Q      -0.105000
      9 CCF         20.5480    -6.6010     0.4780 ca         1 Y5Q      -0.091000
     10 CCC         22.7990    -5.5100    -0.7760 ca         1 Y5Q      -0.105000
     11 CCB         21.5220    -5.3210    -1.3310 ca         1 Y5Q      -0.091000
     12 CCA         20.3860    -5.8570    -0.7020 ca         1 Y5Q      -0.119300
     13 CBZ         19.0010    -5.6340    -1.2900 c3         1 Y5Q       0.149300
     14 NBY         18.4010    -4.3920    -0.7990 ns         1 Y5Q      -0.494900
     15 CBW         18.5690    -3.1600    -1.3950 c          1 Y5Q       0.604100
     16 OBX         19.2420    -2.9930    -2.4050 o          1 Y5Q      -0.603100
     17 CBV         17.7740    -2.0770    -0.5950 c5         1 Y5Q       0.034700
     18 CBU         16.3080    -2.0400    -1.1210 c5         1 Y5Q      -0.127400
     19 CBS         15.8120    -0.6560    -0.6370 c5         1 Y5Q       0.153300
     20 OBT         15.5190    -0.6670     0.7640 oh         1 Y5Q      -0.653000
     21 CBR         17.0350     0.2510    -0.9750 c5         1 Y5Q       0.107000
     22 NBQ         18.1910    -0.6730    -0.8590 n          1 Y5Q      -0.388800
     23 CBO         19.4990    -0.2210    -0.5820 c          1 Y5Q       0.611100
     24 OBP         20.2670    -0.9340     0.0550 o          1 Y5Q      -0.630100
     25 CBN         19.9680     1.1610    -1.1500 c3         1 Y5Q       0.046700
     26 CCM         20.5030     1.0810    -2.6350 c3         1 Y5Q      -0.046000
     27 CCO         21.0010     2.4730    -3.1180 c3         1 Y5Q      -0.091433
     28 CCP         21.6830     0.0740    -2.7460 c3         1 Y5Q      -0.091433
     29 CCN         19.3770     0.6330    -3.6070 c3         1 Y5Q      -0.091433
     30 NBM         20.9770     1.7250    -0.2220 ns         1 Y5Q      -0.487900
     31 CBK         21.0730     3.0450     0.1580 c          1 Y5Q       0.567100
     32 OBL         20.2950     3.8990    -0.2460 o          1 Y5Q      -0.616100
     33 CBJ         22.2140     3.3660     1.1510 c3         1 Y5Q       0.066600
     34 OBI         23.2420     2.3410     1.1930 os         1 Y5Q      -0.438000
     35 CBH         24.1350     2.3200     0.0580 c3         1 Y5Q       0.146600
     36 CBG         25.1750     1.1940     0.2500 c3         1 Y5Q       0.159600
     37 OBF         24.5240    -0.0900     0.1470 os         1 Y5Q      -0.452000
     38 CBE         25.4270    -1.2080     0.2270 c3         1 Y5Q       0.141600
     39 CBD         24.6190    -2.5200     0.1550 c3         1 Y5Q       0.082600
     40 NBC         23.8290    -2.8110     1.3620 na         1 Y5Q       0.122800
     41 CBB         22.4700    -2.9570     1.4500 cc         1 Y5Q      -0.172000
     42 NCQ         24.4320    -3.0100     2.5680 nc         1 Y5Q      -0.215800
     43 NCR         23.4780    -3.2480     3.4260 nd         1 Y5Q      -0.341000
     44 CBA         22.2590    -3.2200     2.7750 cd         1 Y5Q       0.172300
     45 CAB         20.9370    -3.4280     3.5030 c3         1 Y5Q       0.087400
     46 CAA         19.7460    -3.5970     2.5380 c3         1 Y5Q      -0.118100
     47 NAC         20.6130    -2.3690     4.4980 n          1 Y5Q      -0.383800
     48 C           20.8290    -2.6280     5.8660 c          1 Y5Q       0.565000
     49 O           21.7090    -3.3990     6.2350 o          1 Y5Q      -0.578000
     50 CAD         20.8480    -0.9730     4.0520 c3         1 Y5Q       0.123000
     51 CAE         19.6530    -0.0130     4.1980 c3         1 Y5Q      -0.058500
     52 CAF         19.9230     1.2870     3.4580 c2         1 Y5Q      -0.235200
     53 CAG         18.9780     2.0470     2.8830 c2         1 Y5Q      -0.292000
     54 CAH         19.1590     0.2510     5.6720 c6         1 Y5Q       0.246500
     55 CAI         17.6880    -0.2070     5.8450 c6         1 Y5Q      -0.094400
     56 CAJ         17.5730    -1.7480     5.8360 c6         1 Y5Q      -0.074400
     57 CB          18.4780    -2.3450     6.9340 c6         1 Y5Q      -0.083400
     58 CA          19.9570    -1.8480     6.9050 c6         1 Y5Q       0.162500
     59 N           19.9730    -0.3470     6.7710 n3         1 Y5Q      -0.783500
     60 SAN         21.1120     0.5790     7.6420 sy         1 Y5Q       1.188600
     61 OAO         20.3370     1.4210     8.5590 o          1 Y5Q      -0.537000
     62 OAP         22.1100    -0.3740     8.1390 o          1 Y5Q      -0.537000
     63 CAQ         21.9310     1.5860     6.3920 ca         1 Y5Q      -0.260500
     64 CAR         21.4160     2.8530     6.0430 ca         1 Y5Q      -0.006000
     65 CAS         22.0880     3.6480     5.0990 ca         1 Y5Q       0.102000
     66 ClAT        21.4320     5.2170     4.6470 cl         1 Y5Q      -0.183000
     67 CAU         23.2810     3.1950     4.5100 ca         1 Y5Q      -0.044000
     68 CAV         23.8010     1.9400     4.8630 ca         1 Y5Q       0.102000
     69 ClAW        25.2960     1.3700     4.1330 cl         1 Y5Q      -0.183000
     70 CAX         23.1360     1.1390     5.8050 ca         1 Y5Q      -0.006000
     71 HCI         24.4420    -6.7150     4.4330 hc         1 Y5Q       0.057700
     72 HCJ         23.0420    -6.1570     3.5230 hc         1 Y5Q       0.057700
     73 HCK         23.4430    -7.8930     3.5730 hc         1 Y5Q       0.057700
     74 HCL         27.8030    -6.8070     1.2330 h5         1 Y5Q       0.051100
     75 HCE         21.8980    -7.3760     1.9390 ha         1 Y5Q       0.116000
     76 HCF         19.6820    -7.0400     0.9690 ha         1 Y5Q       0.122000
     77 HCC         23.6490    -5.0710    -1.2890 ha         1 Y5Q       0.116000
     78 HCB         21.4170    -4.7490    -2.2500 ha         1 Y5Q       0.122000
     79 HCA         18.3450    -6.4720    -1.0200 h1         1 Y5Q       0.064200
     80 HBZ         19.0610    -5.6040    -2.3870 h1         1 Y5Q       0.064200
     81 HBY         17.8220    -4.4320     0.0300 hn         1 Y5Q       0.316500
     82 HBV         17.8190    -2.3000     0.4790 h1         1 Y5Q       0.070700
     83 HBU         15.7010    -2.8700    -0.7410 hc         1 Y5Q       0.068700
     84 HB9         16.2770    -2.0960    -2.2170 hc         1 Y5Q       0.068700
     85 HBS         14.9230    -0.3320    -1.1970 h1         1 Y5Q       0.056700
     86 HBT         14.7120    -1.2140     0.8840 ho         1 Y5Q       0.447000
     87 HB8         17.1090     1.0990    -0.2820 h1         1 Y5Q       0.071700
     88 HBR         16.9520     0.6470    -1.9950 h1         1 Y5Q       0.071700
     89 HBN         19.0990     1.8290    -1.1380 h1         1 Y5Q       0.088700
     90 HCS         21.8740     2.8110    -2.5470 hc         1 Y5Q       0.040700
     91 HCQ         21.2990     2.4400    -4.1730 hc         1 Y5Q       0.040700
     92 HCR         20.2120     3.2280    -3.0170 hc         1 Y5Q       0.040700
     93 HCV         22.5030     0.3430    -2.0700 hc         1 Y5Q       0.040700
     94 HCT         21.3640    -0.9460    -2.5010 hc         1 Y5Q       0.040700
     95 HCU         22.0860     0.0550    -3.7670 hc         1 Y5Q       0.040700
     96 HCN         19.0220    -0.3780    -3.3810 hc         1 Y5Q       0.040700
     97 HCO         18.5230     1.3190    -3.5610 hc         1 Y5Q       0.040700
     98 HCP         19.7370     0.6230    -4.6440 hc         1 Y5Q       0.040700
     99 HBM         21.6530     1.0920     0.1960 hn         1 Y5Q       0.349500
    100 HBJ         22.6370     4.3420     0.8840 h1         1 Y5Q       0.077700
    101 HB7         21.7440     3.4620     2.1360 h1         1 Y5Q       0.077700
    102 HB6         24.6660     3.2770    -0.0250 h1         1 Y5Q       0.039700
    103 HBH         23.5910     2.1540    -0.8800 h1         1 Y5Q       0.039700
    104 HB5         25.6650     1.3090     1.2250 h1         1 Y5Q       0.036700
    105 HBG         25.9440     1.2930    -0.5280 h1         1 Y5Q       0.036700
    106 HB4         26.0080    -1.1810     1.1590 h1         1 Y5Q       0.042700
    107 HBE         26.1340    -1.1840    -0.6130 h1         1 Y5Q       0.042700
    108 HBD         23.9480    -2.4840    -0.7110 h1         1 Y5Q       0.075200
    109 HB3         25.3160    -3.3510     0.0010 h1         1 Y5Q       0.075200
    110 HBB         21.7960    -2.8560     0.6120 h4         1 Y5Q       0.189000
    111 HAD         21.0330    -4.3840     4.0360 h1         1 Y5Q       0.101700
    112 HAA         18.8370    -3.8610     3.0920 hc         1 Y5Q       0.046700
    113 HAB         19.5540    -2.6690     1.9910 hc         1 Y5Q       0.046700
    114 HAC         19.9440    -4.3910     1.8130 hc         1 Y5Q       0.046700
    115 HAE         21.7120    -0.5760     4.5910 h1         1 Y5Q       0.058700
    116 HAF         21.1200    -0.9730     2.9890 h1         1 Y5Q       0.058700
    117 HAG         18.8420    -0.4990     3.6420 hc         1 Y5Q       0.062700
    118 HAH         20.9720     1.5830     3.4160 ha         1 Y5Q       0.164000
    119 HAI         19.2200     2.9780     2.3710 ha         1 Y5Q       0.169500
    120 HAJ         17.9230     1.7690     2.9080 ha         1 Y5Q       0.169500
    121 HAK         19.1370     1.3420     5.8040 h1         1 Y5Q       0.060700
    122 HAM         17.3000     0.1840     6.7960 hc         1 Y5Q       0.057700
    123 HAL         17.0580     0.2270     5.0570 hc         1 Y5Q       0.057700
    124 HAN         16.5300    -2.0440     6.0130 hc         1 Y5Q       0.045200
    125 HAO         17.8440    -2.1590     4.8550 hc         1 Y5Q       0.045200
    126 HB2         18.4540    -3.4420     6.8820 hc         1 Y5Q       0.063700
    127 HB1         18.0510    -2.0860     7.9120 hc         1 Y5Q       0.063700
    128 HA          20.3870    -2.1410     7.8740 h1         1 Y5Q       0.111700
    129 HAR         20.5000     3.2260     6.4980 ha         1 Y5Q       0.159000
    130 HAU         23.8000     3.8120     3.7830 ha         1 Y5Q       0.140000
    131 HAX         23.5630     0.1740     6.0720 ha         1 Y5Q       0.159000
@<TRIPOS>BOND
     1     1     2 1   
     2     1    71 1   
     3     1    72 1   
     4     1    73 1   
     5     2     3 1   
     6     2     6 2   
     7     3     4 2   
     8     4     5 1   
     9     4    74 1   
    10     5     6 1   
    11     6     7 1   
    12     7     8 ar  
    13     7    10 ar  
    14     8     9 ar  
    15     8    75 1   
    16     9    12 ar  
    17     9    76 1   
    18    10    11 ar  
    19    10    77 1   
    20    11    12 ar  
    21    11    78 1   
    22    12    13 1   
    23    13    14 1   
    24    13    79 1   
    25    13    80 1   
    26    14    15 1   
    27    14    81 1   
    28    15    16 2   
    29    15    17 1   
    30    17    18 1   
    31    17    22 1   
    32    17    82 1   
    33    18    19 1   
    34    18    83 1   
    35    18    84 1   
    36    19    20 1   
    37    19    21 1   
    38    19    85 1   
    39    20    86 1   
    40    21    22 1   
    41    21    87 1   
    42    21    88 1   
    43    22    23 1   
    44    23    24 2   
    45    23    25 1   
    46    25    26 1   
    47    25    30 1   
    48    25    89 1   
    49    26    27 1   
    50    26    28 1   
    51    26    29 1   
    52    27    90 1   
    53    27    91 1   
    54    27    92 1   
    55    28    93 1   
    56    28    94 1   
    57    28    95 1   
    58    29    96 1   
    59    29    97 1   
    60    29    98 1   
    61    30    31 1   
    62    30    99 1   
    63    31    32 2   
    64    31    33 1   
    65    33    34 1   
    66    33   100 1   
    67    33   101 1   
    68    34    35 1   
    69    35    36 1   
    70    35   102 1   
    71    35   103 1   
    72    36    37 1   
    73    36   104 1   
    74    36   105 1   
    75    37    38 1   
    76    38    39 1   
    77    38   106 1   
    78    38   107 1   
    79    39    40 1   
    80    39   108 1   
    81    39   109 1   
    82    40    41 1   
    83    40    42 1   
    84    41    44 2   
    85    41   110 1   
    86    42    43 2   
    87    43    44 1   
    88    44    45 1   
    89    45    46 1   
    90    45    47 1   
    91    45   111 1   
    92    46   112 1   
    93    46   113 1   
    94    46   114 1   
    95    47    48 1   
    96    47    50 1   
    97    48    49 2   
    98    48    58 1   
    99    50    51 1   
   100    50   115 1   
   101    50   116 1   
   102    51    52 1   
   103    51    54 1   
   104    51   117 1   
   105    52    53 2   
   106    52   118 1   
   107    53   119 1   
   108    53   120 1   
   109    54    55 1   
   110    54    59 1   
   111    54   121 1   
   112    55    56 1   
   113    55   122 1   
   114    55   123 1   
   115    56    57 1   
   116    56   124 1   
   117    56   125 1   
   118    57    58 1   
   119    57   126 1   
   120    57   127 1   
   121    58    59 1   
   122    58   128 1   
   123    59    60 1   
   124    60    61 2   
   125    60    62 2   
   126    60    63 1   
   127    63    64 ar  
   128    63    70 ar  
   129    64    65 ar  
   130    64   129 1   
   131    65    66 1   
   132    65    67 ar  
   133    67    68 ar  
   134    67   130 1   
   135    68    69 1   
   136    68    70 ar  
   137    70   131 1   
@<TRIPOS>SUBSTRUCTURE
     1 Y5Q         1 TEMP              0 ****  ****    0 ROOT
