@<TRIPOS>MOLECULE
Y5R
   41    44     1     0     0
SMALL
abcg2


@<TRIPOS>ATOM
      1 C10        137.7070   137.1320   175.4320 ca         1 Y5R      -0.104300
      2 C13        136.4650   136.3200   177.7330 ca         1 Y5R       0.335900
      3 C15        136.6480   136.2120   175.4430 ca         1 Y5R       0.415800
      4 C17        135.9640   134.3260   173.9620 c2         1 Y5R      -0.053400
      5 C21        137.5390   132.4110   174.0740 c6         1 Y5R       0.152300
      6 C22        136.5200   133.2550   174.8570 c6         1 Y5R      -0.083700
      7 C02        134.8600   138.6680   171.4650 ca         1 Y5R       0.122000
      8 C03        133.8830   137.9370   172.1200 ca         1 Y5R      -0.107000
      9 C04        134.2770   136.9420   173.0040 ca         1 Y5R      -0.086000
     10 C05        135.6220   136.6720   173.2260 ca         1 Y5R      -0.039800
     11 C06        136.5940   137.4170   172.5530 ca         1 Y5R      -0.061300
     12 C07        136.2080   138.4180   171.6710 ca         1 Y5R      -0.102000
     13 C08        138.0360   137.1270   172.8360 c3         1 Y5R      -0.027100
     14 C09        138.4580   137.6260   174.2160 c3         1 Y5R      -0.020100
     15 C11        138.1180   137.6340   176.6650 ca         1 Y5R      -0.085000
     16 C12        137.5020   137.2330   177.8350 ca         1 Y5R      -0.161000
     17 C16        136.0730   135.6420   174.1950 ce         1 Y5R      -0.143000
     18 C18        135.4030   133.7610   172.6880 c6         1 Y5R      -0.083700
     19 C19        136.4670   132.9040   171.9850 c6         1 Y5R       0.152300
     20 N14        136.0510   135.8310   176.5760 nb         1 Y5R      -0.670000
     21 N20        137.0380   131.8710   172.8260 n7         1 Y5R      -0.848400
     22 CL01       134.3900   139.9250   170.3640 cl         1 Y5R      -0.207000
     23 H1         135.9450   135.9720   178.6200 h4         1 Y5R       0.019100
     24 H2         137.8930   131.5900   174.7000 h1         1 Y5R       0.053200
     25 H3         138.4100   133.0360   173.8500 h1         1 Y5R       0.053200
     26 H4         136.9940   133.6580   175.7500 hc         1 Y5R       0.057950
     27 H5         135.7050   132.6050   175.1930 hc         1 Y5R       0.057950
     28 H6         132.8340   138.1390   171.9520 ha         1 Y5R       0.130000
     29 H7         133.5220   136.3690   173.5280 ha         1 Y5R       0.125000
     30 H8         136.9570   138.9970   171.1450 ha         1 Y5R       0.128000
     31 H9         138.2210   136.0530   172.7510 hc         1 Y5R       0.055200
     32 H10        138.6730   137.6140   172.0960 hc         1 Y5R       0.055200
     33 H11        139.5160   137.3880   174.3560 hc         1 Y5R       0.050700
     34 H12        138.4020   138.7190   174.2160 hc         1 Y5R       0.050700
     35 H13        138.9350   138.3460   176.7010 ha         1 Y5R       0.116000
     36 H14        137.8120   137.6160   178.7980 ha         1 Y5R       0.124000
     37 H15        135.0510   134.5380   172.0100 hc         1 Y5R       0.057950
     38 H16        134.5430   133.1250   172.9250 hc         1 Y5R       0.057950
     39 H17        136.0380   132.4400   171.0950 h1         1 Y5R       0.053200
     40 H18        137.2760   133.5580   171.6420 h1         1 Y5R       0.053200
     41 H19        136.3290   131.1730   173.0230 hn         1 Y5R       0.405000
@<TRIPOS>BOND
     1     1     3 ar  
     2     1    14 1   
     3     1    15 ar  
     4     2    16 ar  
     5     2    20 ar  
     6     2    23 1   
     7     3    17 1   
     8     3    20 ar  
     9     4     6 1   
    10     4    17 2   
    11     4    18 1   
    12     5     6 1   
    13     5    21 1   
    14     5    24 1   
    15     5    25 1   
    16     6    26 1   
    17     6    27 1   
    18     7     8 ar  
    19     7    12 ar  
    20     7    22 1   
    21     8     9 ar  
    22     8    28 1   
    23     9    10 ar  
    24     9    29 1   
    25    10    11 ar  
    26    10    17 1   
    27    11    12 ar  
    28    11    13 1   
    29    12    30 1   
    30    13    14 1   
    31    13    31 1   
    32    13    32 1   
    33    14    33 1   
    34    14    34 1   
    35    15    16 ar  
    36    15    35 1   
    37    16    36 1   
    38    18    19 1   
    39    18    37 1   
    40    18    38 1   
    41    19    21 1   
    42    19    39 1   
    43    19    40 1   
    44    21    41 1   
@<TRIPOS>SUBSTRUCTURE
     1 Y5R         1 TEMP              0 ****  ****    0 ROOT
