@<TRIPOS>MOLECULE
Y5R
   41    44     1     0     0
SMALL
No Charge or Current Charge


@<TRIPOS>ATOM
      1 C10        137.7390   137.1930   175.4820 ca         1 Y5R      -0.104300
      2 C13        136.4560   136.3180   177.7780 ca         1 Y5R       0.335900
      3 C15        136.6710   136.2450   175.4600 ca         1 Y5R       0.415800
      4 C17        136.0690   134.3410   173.9040 c2         1 Y5R      -0.053400
      5 C21        137.5080   132.2340   174.0760 c6         1 Y5R       0.152300
      6 C22        136.6010   133.2370   174.8280 c6         1 Y5R      -0.083700
      7 C02        134.7960   138.6750   171.4260 ca         1 Y5R       0.122000
      8 C03        133.8450   137.8870   172.0970 ca         1 Y5R      -0.107000
      9 C04        134.2690   136.9020   173.0050 ca         1 Y5R      -0.086000
     10 C05        135.6420   136.7050   173.2380 ca         1 Y5R      -0.039800
     11 C06        136.5930   137.4940   172.5710 ca         1 Y5R      -0.061300
     12 C07        136.1670   138.4810   171.6610 ca         1 Y5R      -0.102000
     13 C08        138.0680   137.2560   172.8490 c3         1 Y5R      -0.027100
     14 C09        138.4870   137.7450   174.2530 c3         1 Y5R      -0.020100
     15 C11        138.1560   137.6820   176.7370 ca         1 Y5R      -0.085000
     16 C12        137.5080   137.2350   177.8960 ca         1 Y5R      -0.161000
     17 C16        136.1170   135.6740   174.1930 ce         1 Y5R      -0.143000
     18 C18        135.4900   133.7810   172.5980 c6         1 Y5R      -0.083700
     19 C19        136.4450   132.7660   171.9270 c6         1 Y5R       0.152300
     20 N14        136.0390   135.8350   176.5900 nb         1 Y5R      -0.670000
     21 N20        136.8360   131.6950   172.8710 n7         1 Y5R      -0.848400
     22 Cl01       134.2670   139.9090   170.2900 cl         1 Y5R      -0.207000
     23 H1         135.9290   135.9600   178.6620 h4         1 Y5R       0.019100
     24 H2         137.7830   131.4090   174.7500 h1         1 Y5R       0.053200
     25 H3         138.4400   132.7410   173.7800 h1         1 Y5R       0.053200
     26 H4         137.1780   133.6480   175.6640 hc         1 Y5R       0.057950
     27 H5         135.7520   132.7010   175.2750 hc         1 Y5R       0.057950
     28 H6         132.7850   138.0410   171.9130 ha         1 Y5R       0.130000
     29 H7         133.5350   136.2910   173.5270 ha         1 Y5R       0.125000
     30 H8         136.8940   139.0970   171.1390 ha         1 Y5R       0.128000
     31 H9         138.3120   136.1910   172.7480 hc         1 Y5R       0.055200
     32 H10        138.6840   137.7720   172.1020 hc         1 Y5R       0.055200
     33 H11        139.5580   137.5370   174.3690 hc         1 Y5R       0.050700
     34 H12        138.3990   138.8390   174.2580 hc         1 Y5R       0.050700
     35 H13        138.9690   138.4020   176.8100 ha         1 Y5R       0.116000
     36 H14        137.8070   137.5970   178.8760 ha         1 Y5R       0.124000
     37 H15        135.2680   134.5740   171.8730 hc         1 Y5R       0.057950
     38 H16        134.5310   133.2920   172.8130 hc         1 Y5R       0.057950
     39 H17        135.9540   132.3260   171.0460 h1         1 Y5R       0.053200
     40 H18        137.3450   133.2930   171.5740 h1         1 Y5R       0.053200
     41 H19        135.9860   131.2020   173.1700 hn         1 Y5R       0.405000
@<TRIPOS>BOND
     1     1     3 ar  
     2     1    14 1   
     3     1    15 ar  
     4     2    16 ar  
     5     2    20 ar  
     6     2    23 1   
     7     3    17 1   
     8     3    20 ar  
     9     4     6 1   
    10     4    17 2   
    11     4    18 1   
    12     5     6 1   
    13     5    21 1   
    14     5    24 1   
    15     5    25 1   
    16     6    26 1   
    17     6    27 1   
    18     7     8 ar  
    19     7    12 ar  
    20     7    22 1   
    21     8     9 ar  
    22     8    28 1   
    23     9    10 ar  
    24     9    29 1   
    25    10    11 ar  
    26    10    17 1   
    27    11    12 ar  
    28    11    13 1   
    29    12    30 1   
    30    13    14 1   
    31    13    31 1   
    32    13    32 1   
    33    14    33 1   
    34    14    34 1   
    35    15    16 ar  
    36    15    35 1   
    37    16    36 1   
    38    18    19 1   
    39    18    37 1   
    40    18    38 1   
    41    19    21 1   
    42    19    39 1   
    43    19    40 1   
    44    21    41 1   
@<TRIPOS>SUBSTRUCTURE
     1 Y5R         1 TEMP              0 ****  ****    0 ROOT
