@<TRIPOS>MOLECULE
Y5T
   30    31     1     0     0
SMALL
abcg2


@<TRIPOS>ATOM
      1 C10         -5.1830     1.0670    15.2830 ca         1 Y5T      -0.186200
      2 C15         -6.4430     2.5990    16.6030 ca         1 Y5T      -0.123000
      3 C16         -6.8210     3.2640    15.4460 ca         1 Y5T       0.191000
      4 N20         -5.7760     5.6280     8.3200 nb         1 Y5T      -0.687000
      5 C02         -6.9360     5.2950     8.8820 ca         1 Y5T       0.378300
      6 C03         -7.0300     4.7200    10.1470 ca         1 Y5T      -0.188000
      7 C04         -5.8600     4.4740    10.8630 ca         1 Y5T       0.016000
      8 C08         -6.3730     2.8400    14.1960 ca         1 Y5T      -0.167600
      9 C09         -5.5400     1.7320    14.1230 ca         1 Y5T      -0.021000
     10 C14         -5.6250     1.4870    16.5260 ca         1 Y5T      -0.020000
     11 C18         -4.6470     4.8220    10.2680 ca         1 Y5T      -0.229000
     12 C19         -4.6680     5.3890     9.0100 ca         1 Y5T       0.368900
     13 N05         -5.8080     3.9020    12.1310 ns         1 Y5T      -0.141000
     14 N11         -4.3200    -0.1020    15.1900 no         1 Y5T       0.697200
     15 O07         -8.0090     3.6220    12.6740 o          1 Y5T      -0.536100
     16 O12         -4.0400    -0.6780    16.2130 o          1 Y5T      -0.390000
     17 O13         -3.9330    -0.4320    14.0950 o          1 Y5T      -0.390000
     18 CL1         -7.8160     4.6570    15.5960 cl         1 Y5T      -0.139000
     19 H1          -6.7870     2.9480    17.5670 ha         1 Y5T       0.149000
     20 H2          -8.2670     6.6380     7.8770 hc         1 Y5T       0.054033
     21 H3          -8.1330     5.0590     7.1230 hc         1 Y5T       0.054033
     22 H4          -9.0740     5.2480     8.6050 hc         1 Y5T       0.054033
     23 H5          -8.0010     4.4770    10.5440 ha         1 Y5T       0.153000
     24 H6          -5.1890     1.3870    13.1590 ha         1 Y5T       0.161000
     25 H7          -5.3420     0.9700    17.4310 ha         1 Y5T       0.160000
     26 H8          -3.7040     4.6540    10.7730 ha         1 Y5T       0.121000
     27 H9          -3.7330     5.6660     8.5360 h4         1 Y5T       0.020100
     28 H10         -4.8780     3.8010    12.5140 hn         1 Y5T       0.159000
     29 C06         -6.8320     3.5000    12.9280 c          1 Y5T       0.627700
     30 C01         -8.1750     5.5720     8.0850 c3         1 Y5T      -0.147400
@<TRIPOS>BOND
     1     1     9 ar  
     2     1    10 ar  
     3     1    14 1   
     4     2     3 ar  
     5     2    10 ar  
     6     2    19 1   
     7     3     8 ar  
     8     3    18 1   
     9     4     5 ar  
    10     4    12 ar  
    11     5     6 ar  
    12     5    30 1   
    13     6     7 ar  
    14     6    23 1   
    15     7    11 ar  
    16     7    13 1   
    17     8     9 ar  
    18     8    29 1   
    19     9    24 1   
    20    10    25 1   
    21    11    12 ar  
    22    11    26 1   
    23    12    27 1   
    24    13    28 1   
    25    13    29 1   
    26    14    16 1   
    27    14    17 1   
    28    15    29 2   
    29    20    30 1   
    30    21    30 1   
    31    22    30 1   
@<TRIPOS>SUBSTRUCTURE
     1 Y5T         1 TEMP              0 ****  ****    0 ROOT
