@<TRIPOS>MOLECULE
Y5T
   30    31     1     0     0
SMALL
No Charge or Current Charge


@<TRIPOS>ATOM
      1 C10         -4.9720     1.2430    15.3960 ca         1 Y5T      -0.186200
      2 C15         -6.7340     2.3640    16.6480 ca         1 Y5T      -0.123000
      3 C16         -7.1590     3.0330    15.4900 ca         1 Y5T       0.191000
      4 N20         -5.7660     5.4030     8.1440 nb         1 Y5T      -0.687000
      5 C02         -6.9280     5.4000     8.8320 ca         1 Y5T       0.378300
      6 C03         -7.0490     4.8610    10.1240 ca         1 Y5T      -0.188000
      7 C04         -5.9210     4.2880    10.7460 ca         1 Y5T       0.016000
      8 C08         -6.4930     2.8190    14.2560 ca         1 Y5T      -0.167600
      9 C09         -5.3970     1.9170    14.2270 ca         1 Y5T      -0.021000
     10 C14         -5.6520     1.4740    16.6100 ca         1 Y5T      -0.020000
     11 C18         -4.7180     4.2960    10.0220 ca         1 Y5T      -0.229000
     12 C19         -4.6820     4.8570     8.7360 ca         1 Y5T       0.368900
     13 N05         -5.9220     3.7150    12.0470 ns         1 Y5T      -0.141000
     14 N11         -3.8160     0.2880    15.3470 no         1 Y5T       0.697200
     15 O07         -8.0990     3.8200    12.7710 o          1 Y5T      -0.536100
     16 O12         -3.4910    -0.2920    16.3920 o          1 Y5T      -0.390000
     17 O13         -3.2360     0.1250    14.2660 o          1 Y5T      -0.390000
     18 Cl1         -8.4920     4.1770    15.6810 cl         1 Y5T      -0.139000
     19 H1          -7.2470     2.5440    17.5900 ha         1 Y5T       0.149000
     20 H2          -8.2180     7.0850     8.4160 hc         1 Y5T       0.054033
     21 H3          -8.0270     5.9760     7.0460 hc         1 Y5T       0.054033
     22 H4          -9.0510     5.5210     8.4130 hc         1 Y5T       0.054033
     23 H5          -8.0150     4.9050    10.6140 ha         1 Y5T       0.153000
     24 H6          -4.8850     1.7150    13.2870 ha         1 Y5T       0.161000
     25 H7          -5.3490     0.9720    17.5280 ha         1 Y5T       0.160000
     26 H8          -3.8110     3.8720    10.4440 ha         1 Y5T       0.121000
     27 H9          -3.7560     4.8710     8.1620 h4         1 Y5T       0.020100
     28 H10         -5.0080     3.4130    12.3550 hn         1 Y5T       0.159000
     29 C06         -6.9310     3.5150    12.9820 c          1 Y5T       0.627700
     30 C01         -8.1200     6.0300     8.1370 c3         1 Y5T      -0.147400
@<TRIPOS>BOND
     1     1     9 ar  
     2     1    10 ar  
     3     1    14 1   
     4     2     3 ar  
     5     2    10 ar  
     6     2    19 1   
     7     3     8 ar  
     8     3    18 1   
     9     4     5 ar  
    10     4    12 ar  
    11     5     6 ar  
    12     5    30 1   
    13     6     7 ar  
    14     6    23 1   
    15     7    11 ar  
    16     7    13 1   
    17     8     9 ar  
    18     8    29 1   
    19     9    24 1   
    20    10    25 1   
    21    11    12 ar  
    22    11    26 1   
    23    12    27 1   
    24    13    28 1   
    25    13    29 1   
    26    14    16 1   
    27    14    17 1   
    28    15    29 2   
    29    20    30 1   
    30    21    30 1   
    31    22    30 1   
@<TRIPOS>SUBSTRUCTURE
     1 Y5T         1 TEMP              0 ****  ****    0 ROOT
