@<TRIPOS>MOLECULE
Y5U
   45    49     1     0     0
SMALL
abcg2


@<TRIPOS>ATOM
      1 C1          14.3840    26.6490     0.3410 ce         1 Y5U       0.657300
      2 C2          13.3330    26.6740     1.3960 ca         1 Y5U      -0.149400
      3 C3          12.3730    27.7060     1.3850 ca         1 Y5U      -0.104500
      4 C4          11.3860    27.7970     2.3440 ca         1 Y5U      -0.053000
      5 C5          11.3600    26.8300     3.3510 ca         1 Y5U       0.082900
      6 C6          10.9310    25.6120     5.0440 cc         1 Y5U       0.488400
      7 C7          10.2890    25.0990     6.2340 cc         1 Y5U      -0.132400
      8 C8           9.1620    25.6290     6.8000 cd         1 Y5U      -0.076000
      9 C9           8.7030    24.9640     7.9560 cd         1 Y5U      -0.076000
     10 C10          9.4540    23.8900     8.3450 cc         1 Y5U      -0.132400
     11 C11          9.1650    23.0460     9.4840 cc         1 Y5U       0.488400
     12 C12          8.1220    22.0940    11.0780 ca         1 Y5U       0.082900
     13 C13          7.1890    21.6320    12.0090 ca         1 Y5U      -0.053000
     14 C14          7.6120    20.7210    12.9530 ca         1 Y5U      -0.104500
     15 C15          8.9440    20.2620    13.0080 ca         1 Y5U      -0.149400
     16 C16          9.3210    19.2780    14.0600 ce         1 Y5U       0.657300
     17 C17          9.8790    20.7090    12.0830 ca         1 Y5U      -0.090000
     18 C18          9.4420    21.6190    11.1310 ca         1 Y5U      -0.086700
     19 C19         12.3220    25.8070     3.3540 ca         1 Y5U      -0.086700
     20 C20         13.3130    25.7030     2.3890 ca         1 Y5U      -0.090000
     21 SE1         10.8830    23.6200     7.1890 ss         1 Y5U      -0.022000
     22 N1          14.9250    27.6860    -0.1750 n2         1 Y5U      -0.829600
     23 N2          14.7970    25.4020    -0.0310 nv         1 Y5U      -1.054700
     24 N3          10.5120    26.6810     4.4110 nd         1 Y5U      -0.563100
     25 N4           7.9810    22.9770    10.0430 nd         1 Y5U      -0.563100
     26 N5           8.4190    18.5060    14.5310 n2         1 Y5U      -0.829600
     27 N6          10.6470    19.2590    14.3930 nv         1 Y5U      -1.054700
     28 N7          10.0790    22.2420    10.0940 na         1 Y5U      -0.304600
     29 N8          12.0210    25.0490     4.4510 na         1 Y5U      -0.304600
     30 H4          12.3960    28.4370     0.5870 ha         1 Y5U       0.130500
     31 H5          10.6500    28.5890     2.3130 ha         1 Y5U       0.134500
     32 H6           8.6660    26.4960     6.3870 ha         1 Y5U       0.163500
     33 H7           7.8280    25.2800     8.5070 ha         1 Y5U       0.163500
     34 H8           6.1650    21.9820    11.9900 ha         1 Y5U       0.134500
     35 H9           6.9100    20.3480    13.6860 ha         1 Y5U       0.130500
     36 H13         10.9010    20.3540    12.0850 ha         1 Y5U       0.127000
     37 H16         14.0490    24.9100     2.4230 ha         1 Y5U       0.127000
     38 H1          14.5960    28.5280     0.2810 hn         1 Y5U       0.381400
     39 H2          14.1290    24.6500     0.0010 hn         1 Y5U       0.463250
     40 H3          15.4220    25.3640    -0.8210 hn         1 Y5U       0.463250
     41 H10          8.7960    17.9060    15.2610 hn         1 Y5U       0.381400
     42 H12         10.9090    18.7030    15.1920 hn         1 Y5U       0.463250
     43 H11         11.1720    20.1140    14.3120 hn         1 Y5U       0.463250
     44 H14         11.0670    22.1750     9.8960 hn         1 Y5U       0.362500
     45 H15         12.5190    24.2190     4.7350 hn         1 Y5U       0.362500
@<TRIPOS>BOND
     1     1     2 1   
     2     1    22 2   
     3     1    23 1   
     4     2     3 ar  
     5     2    20 ar  
     6     3     4 ar  
     7     3    30 1   
     8     4     5 ar  
     9     4    31 1   
    10     5    19 ar  
    11     5    24 1   
    12     6     7 1   
    13     6    24 2   
    14     6    29 1   
    15     7     8 2   
    16     7    21 1   
    17     8     9 1   
    18     8    32 1   
    19     9    10 2   
    20     9    33 1   
    21    10    11 1   
    22    10    21 1   
    23    11    25 2   
    24    11    28 1   
    25    12    13 ar  
    26    12    18 ar  
    27    12    25 1   
    28    13    14 ar  
    29    13    34 1   
    30    14    15 ar  
    31    14    35 1   
    32    15    16 1   
    33    15    17 ar  
    34    16    26 2   
    35    16    27 1   
    36    17    18 ar  
    37    17    36 1   
    38    18    28 1   
    39    19    20 ar  
    40    19    29 1   
    41    20    37 1   
    42    22    38 1   
    43    23    39 1   
    44    23    40 1   
    45    26    41 1   
    46    27    42 1   
    47    27    43 1   
    48    28    44 1   
    49    29    45 1   
@<TRIPOS>SUBSTRUCTURE
     1 Y5U         1 TEMP              0 ****  ****    0 ROOT
