@<TRIPOS>MOLECULE
Y5U
   45    49     1     0     0
SMALL
No Charge or Current Charge


@<TRIPOS>ATOM
      1 C1          14.6610    26.4810     0.6720 ce         1 Y5U       0.657300
      2 C2          13.4520    26.5570     1.5540 ca         1 Y5U      -0.149400
      3 C3          12.4320    27.5250     1.3120 ca         1 Y5U      -0.104500
      4 C4          11.3070    27.6290     2.1600 ca         1 Y5U      -0.053000
      5 C5          11.2180    26.7680     3.2590 ca         1 Y5U       0.082900
      6 C6          10.6240    25.7160     5.0450 cc         1 Y5U       0.488400
      7 C7           9.9680    25.2140     6.2220 cc         1 Y5U      -0.132400
      8 C8           8.7670    25.7030     6.6790 cd         1 Y5U      -0.076000
      9 C9           8.3130    25.0510     7.8600 cd         1 Y5U      -0.076000
     10 C10          9.1700    24.0690     8.2970 cc         1 Y5U      -0.132400
     11 C11          8.9230    23.2750     9.4700 cc         1 Y5U       0.488400
     12 C12          8.1430    22.3550    11.2570 ca         1 Y5U       0.082900
     13 C13          7.3700    21.9810    12.3620 ca         1 Y5U      -0.053000
     14 C14          7.8450    20.9420    13.1930 ca         1 Y5U      -0.104500
     15 C15          9.0870    20.2930    12.9320 ca         1 Y5U      -0.149400
     16 C16          9.5540    19.1700    13.8120 ce         1 Y5U       0.657300
     17 C17          9.8330    20.6900    11.7880 ca         1 Y5U      -0.090000
     18 C18          9.3230    21.7240    10.9940 ca         1 Y5U      -0.086700
     19 C19         12.2000    25.8540     3.5010 ca         1 Y5U      -0.086700
     20 C20         13.3320    25.7130     2.6900 ca         1 Y5U      -0.090000
     21 SE1         10.5790    23.9190     7.2490 ss         1 Y5U      -0.022000
     22 N1          15.0550    27.4380    -0.0640 n2         1 Y5U      -0.829600
     23 N2          15.2830    25.2930     0.5460 nv         1 Y5U      -1.054700
     24 N3          10.2120    26.7000     4.2190 nd         1 Y5U      -0.563100
     25 N4           7.8690    23.3380    10.3100 nd         1 Y5U      -0.563100
     26 N5           8.7900    18.5510    14.6150 n2         1 Y5U      -0.829600
     27 N6          10.8720    18.8760    13.8230 nv         1 Y5U      -1.054700
     28 N7           9.8260    22.2930     9.8650 na         1 Y5U      -0.304600
     29 N8          11.8400    25.1820     4.6290 na         1 Y5U      -0.304600
     30 H4          12.4970    28.1920     0.4550 ha         1 Y5U       0.130500
     31 H5          10.5270    28.3620     1.9670 ha         1 Y5U       0.134500
     32 H6           8.2180    26.5040     6.1920 ha         1 Y5U       0.163500
     33 H7           7.3830    25.3070     8.3620 ha         1 Y5U       0.163500
     34 H8           6.4250    22.4760    12.5700 ha         1 Y5U       0.134500
     35 H9           7.2440    20.6450    14.0510 ha         1 Y5U       0.130500
     36 H13         10.7680    20.2070    11.5160 ha         1 Y5U       0.127000
     37 H16         14.0980    24.9810     2.9400 ha         1 Y5U       0.127000
     38 H1          14.5240    28.2770     0.2000 hn         1 Y5U       0.381400
     39 H2          14.7150    24.4840     0.7650 hn         1 Y5U       0.463250
     40 H3          15.8690    25.2160    -0.2770 hn         1 Y5U       0.463250
     41 H10          9.2780    17.7040    14.9260 hn         1 Y5U       0.381400
     42 H12         11.2240    18.4670    14.6800 hn         1 Y5U       0.463250
     43 H11         11.4730    19.5770    13.4060 hn         1 Y5U       0.463250
     44 H14         10.6880    22.0610     9.3920 hn         1 Y5U       0.362500
     45 H15         12.3450    24.4380     5.0880 hn         1 Y5U       0.362500
@<TRIPOS>BOND
     1     1     2 1   
     2     1    22 2   
     3     1    23 1   
     4     2     3 ar  
     5     2    20 ar  
     6     3     4 ar  
     7     3    30 1   
     8     4     5 ar  
     9     4    31 1   
    10     5    19 ar  
    11     5    24 1   
    12     6     7 1   
    13     6    24 2   
    14     6    29 1   
    15     7     8 2   
    16     7    21 1   
    17     8     9 1   
    18     8    32 1   
    19     9    10 2   
    20     9    33 1   
    21    10    11 1   
    22    10    21 1   
    23    11    25 2   
    24    11    28 1   
    25    12    13 ar  
    26    12    18 ar  
    27    12    25 1   
    28    13    14 ar  
    29    13    34 1   
    30    14    15 ar  
    31    14    35 1   
    32    15    16 1   
    33    15    17 ar  
    34    16    26 2   
    35    16    27 1   
    36    17    18 ar  
    37    17    36 1   
    38    18    28 1   
    39    19    20 ar  
    40    19    29 1   
    41    20    37 1   
    42    22    38 1   
    43    23    39 1   
    44    23    40 1   
    45    26    41 1   
    46    27    42 1   
    47    27    43 1   
    48    28    44 1   
    49    29    45 1   
@<TRIPOS>SUBSTRUCTURE
     1 Y5U         1 TEMP              0 ****  ****    0 ROOT
