@<TRIPOS>MOLECULE
Y5X
   27    28     1     0     0
SMALL
abcg2


@<TRIPOS>ATOM
      1 C13         -5.0730     0.8980    14.6380 ca         1 Y5X      -0.186200
      2 C10         -4.9560     4.8520     9.7590 ca         1 Y5X      -0.180000
      3 N14         -4.1380    -0.2030    14.4510 no         1 Y5X       0.696200
      4 C17         -5.5180     1.2020    15.9140 ca         1 Y5X      -0.018000
      5 C18         -6.4050     2.2490    16.0790 ca         1 Y5X      -0.122000
      6 C02         -6.9350     3.3660    12.4840 c          1 Y5X       0.627700
      7 C04         -6.1190     4.5370    10.4610 ca         1 Y5X      -0.050000
      8 C05         -7.3450     4.9050     9.8960 ca         1 Y5X       0.308900
      9 C07         -6.3290     5.8390     8.0600 ca         1 Y5X       0.282900
     10 C08         -5.0830     5.5070     8.5570 ca         1 Y5X       0.149000
     11 C11         -6.3980     2.6560    13.6930 ca         1 Y5X      -0.166600
     12 C12         -5.4970     1.6140    13.5310 ca         1 Y5X      -0.021000
     13 C19         -6.8480     2.9640    14.9770 ca         1 Y5X       0.192000
     14 F09         -3.9880     5.8220     7.8590 f          1 Y5X      -0.165000
     15 N03         -5.9700     3.8840    11.6850 ns         1 Y5X      -0.137000
     16 N06         -7.4260     5.5350     8.7320 nb         1 Y5X      -0.625000
     17 O01         -8.1260     3.4290    12.2730 o          1 Y5X      -0.537100
     18 O15         -3.7230    -0.4090    13.3360 o          1 Y5X      -0.389000
     19 O16         -3.8290    -0.8490    15.4240 o          1 Y5X      -0.389000
     20 H2          -5.1840     0.6450    16.7770 ha         1 Y5X       0.161000
     21 H3          -6.7510     2.5080    17.0700 ha         1 Y5X       0.149000
     22 H4          -8.2780     4.6910    10.3920 h4         1 Y5X       0.058100
     23 H5          -6.4340     6.3560     7.1120 h4         1 Y5X       0.042100
     24 H6          -5.1450     1.3570    12.5410 ha         1 Y5X       0.159000
     25 H8          -5.0180     3.7990    12.0120 hn         1 Y5X       0.161000
     26 CL1         -7.9310     4.2730    15.2380 cl         1 Y5X      -0.137000
     27 H1          -3.9770     4.5890    10.1440 ha         1 Y5X       0.136000
@<TRIPOS>BOND
     1     1     3 1   
     2     1     4 ar  
     3     1    12 ar  
     4     2     7 ar  
     5     2    10 ar  
     6     2    27 1   
     7     3    18 1   
     8     3    19 1   
     9     4     5 ar  
    10     4    20 1   
    11     5    13 ar  
    12     5    21 1   
    13     6    11 1   
    14     6    15 1   
    15     6    17 2   
    16     7     8 ar  
    17     7    15 1   
    18     8    16 ar  
    19     8    22 1   
    20     9    10 ar  
    21     9    16 ar  
    22     9    23 1   
    23    10    14 1   
    24    11    12 ar  
    25    11    13 ar  
    26    12    24 1   
    27    13    26 1   
    28    15    25 1   
@<TRIPOS>SUBSTRUCTURE
     1 Y5X         1 TEMP              0 ****  ****    0 ROOT
