@<TRIPOS>MOLECULE
Y5X
   27    28     1     0     0
SMALL
No Charge or Current Charge


@<TRIPOS>ATOM
      1 C13         -4.9620     0.9930    14.6570 ca         1 Y5X      -0.186200
      2 C10         -4.9830     4.5670     9.6020 ca         1 Y5X      -0.180000
      3 N14         -3.8420     0.0210    14.4330 no         1 Y5X       0.696200
      4 C17         -5.5520     1.1130    15.9330 ca         1 Y5X      -0.018000
      5 C18         -6.6010     2.0210    16.1350 ca         1 Y5X      -0.122000
      6 C02         -7.0050     3.5500    12.6270 c          1 Y5X       0.627700
      7 C04         -6.1400     4.5190    10.4060 ca         1 Y5X      -0.050000
      8 C05         -7.3120     5.1770     9.9390 ca         1 Y5X       0.308900
      9 C07         -6.2460     5.8790     7.9970 ca         1 Y5X       0.282900
     10 C08         -5.0400     5.2570     8.3800 ca         1 Y5X       0.149000
     11 C11         -6.5060     2.7160    13.7910 ca         1 Y5X      -0.166600
     12 C12         -5.4420     1.7950    13.5950 ca         1 Y5X      -0.021000
     13 C19         -7.0810     2.8160    15.0830 ca         1 Y5X       0.192000
     14 F09         -3.9480     5.3210     7.5850 f          1 Y5X      -0.165000
     15 N03         -6.0600     3.8140    11.6420 ns         1 Y5X      -0.137000
     16 N06         -7.3690     5.8450     8.7590 nb         1 Y5X      -0.625000
     17 O01         -8.1700     3.9130    12.5320 o          1 Y5X      -0.537100
     18 O15         -3.3400    -0.0430    13.3030 o          1 Y5X      -0.389000
     19 O16         -3.4670    -0.6710    15.3880 o          1 Y5X      -0.389000
     20 H2          -5.2050     0.5120    16.7720 ha         1 Y5X       0.161000
     21 H3          -7.0450     2.1150    17.1230 ha         1 Y5X       0.149000
     22 H4          -8.2350     5.1830    10.5120 h4         1 Y5X       0.058100
     23 H5          -6.3140     6.4200     7.0540 h4         1 Y5X       0.042100
     24 H6          -5.0000     1.6790    12.6060 ha         1 Y5X       0.159000
     25 H8          -5.1360     3.4570    11.8480 hn         1 Y5X       0.161000
     26 Cl1         -8.3630     3.9650    15.4810 cl         1 Y5X      -0.137000
     27 H1          -4.0590     4.0820     9.9110 ha         1 Y5X       0.136000
@<TRIPOS>BOND
     1     1     3 1   
     2     1     4 ar  
     3     1    12 ar  
     4     2     7 ar  
     5     2    10 ar  
     6     2    27 1   
     7     3    18 1   
     8     3    19 1   
     9     4     5 ar  
    10     4    20 1   
    11     5    13 ar  
    12     5    21 1   
    13     6    11 1   
    14     6    15 1   
    15     6    17 2   
    16     7     8 ar  
    17     7    15 1   
    18     8    16 ar  
    19     8    22 1   
    20     9    10 ar  
    21     9    16 ar  
    22     9    23 1   
    23    10    14 1   
    24    11    12 ar  
    25    11    13 ar  
    26    12    24 1   
    27    13    26 1   
    28    15    25 1   
@<TRIPOS>SUBSTRUCTURE
     1 Y5X         1 TEMP              0 ****  ****    0 ROOT
