@<TRIPOS>MOLECULE
Y5Y
   53    57     1     0     0
SMALL
No Charge or Current Charge


@<TRIPOS>ATOM
      1 C1          32.7850    16.1610    32.5070 c3         1 Y5Y      -0.112100
      2 C2          33.7040    15.4260    31.5120 c3         1 Y5Y       0.083600
      3 C4          35.0140    13.3020    32.2770 cc         1 Y5Y       0.458400
      4 C5          34.0650    12.2490    31.9150 ca         1 Y5Y      -0.224900
      5 C6          34.5260    10.9780    31.5170 ca         1 Y5Y       0.139900
      6 C8          32.3620    10.2260    31.3630 ca         1 Y5Y       0.149300
      7 N10         31.8170    11.3890    31.7760 nb         1 Y5Y      -0.181500
      8 C11         32.6700    12.3930    32.0590 ca         1 Y5Y       0.139900
      9 C16         39.6790    13.9210    35.0650 c5         1 Y5Y       0.233500
     10 C18         39.9780    12.5000    35.6200 c5         1 Y5Y      -0.116400
     11 C19         41.1670    11.9930    34.7540 c5         1 Y5Y       0.099000
     12 C23         43.7980    14.6070    33.6470 cx         1 Y5Y      -0.238700
     13 C24         44.7970    14.7690    32.5160 cx         1 Y5Y      -0.099900
     14 C30         35.9330    15.3230    32.5950 ca         1 Y5Y       0.122500
     15 N3          34.8000    14.6870    32.1700 na         1 Y5Y      -0.265300
     16 N7          33.6790     9.9680    31.2290 nb         1 Y5Y      -0.181500
     17 C9          31.4030     9.0910    31.0480 c3         1 Y5Y      -0.137400
     18 N12         36.2500    13.0450    32.7390 nd         1 Y5Y      -0.545100
     19 C13         36.8010    14.3170    32.9350 ca         1 Y5Y      -0.091600
     20 C14         38.0800    14.6640    33.4150 ca         1 Y5Y       0.447900
     21 N15         38.9910    13.6660    33.7590 nu         1 Y5Y      -0.912100
     22 N20         41.9020    13.2400    34.4630 n          1 Y5Y      -0.418800
     23 O22         43.8100    12.2020    33.6990 o          1 Y5Y      -0.615100
     24 C25         43.4040    15.3310    32.3740 cx         1 Y5Y      -0.099900
     25 C26         41.1050    14.4670    34.7240 c5         1 Y5Y       0.090000
     26 N27         38.4400    15.9600    33.5290 nb         1 Y5Y      -0.307000
     27 C28         37.5110    16.8760    33.1660 ca         1 Y5Y       0.181900
     28 N29         36.2650    16.6250    32.6990 nb         1 Y5Y      -0.218000
     29 H1          31.9730    16.6670    31.9720 hc         1 Y5Y       0.051033
     30 H2          32.3420    15.4620    33.2260 hc         1 Y5Y       0.051033
     31 H3          33.3470    16.9170    33.0680 hc         1 Y5Y       0.051033
     32 H4          34.1440    16.1630    30.8260 h1         1 Y5Y       0.065700
     33 H5          33.1120    14.7370    30.8980 h1         1 Y5Y       0.065700
     34 H6          35.5880    10.7600    31.4120 h4         1 Y5Y       0.035600
     35 H7          32.2190    13.3110    32.4260 h4         1 Y5Y       0.035600
     36 H8          39.1090    14.5470    35.7690 h1         1 Y5Y       0.088700
     37 H9          39.1140    11.8270    35.5950 hc         1 Y5Y       0.065700
     38 H10         40.2850    12.5730    36.6690 hc         1 Y5Y       0.065700
     39 H11         40.8210    11.5260    33.8220 h1         1 Y5Y       0.058700
     40 H12         41.7830    11.2630    35.2960 h1         1 Y5Y       0.058700
     41 H13         43.9670    15.2150    34.5310 hc         1 Y5Y       0.086700
     42 H14         45.0510    13.8960    31.9180 hc         1 Y5Y       0.080200
     43 H15         45.6150    15.4720    32.6580 hc         1 Y5Y       0.080200
     44 H16         31.8100     8.4250    30.2770 hc         1 Y5Y       0.063033
     45 H17         31.2070     8.4880    31.9420 hc         1 Y5Y       0.063033
     46 H18         30.4410     9.4680    30.6810 hc         1 Y5Y       0.063033
     47 H19         38.5910    12.7440    33.5840 hn         1 Y5Y       0.519000
     48 H20         42.7220    14.8290    31.6900 hc         1 Y5Y       0.080200
     49 H21         43.2850    16.4120    32.4210 hc         1 Y5Y       0.080200
     50 H22         41.5220    15.0140    35.5790 h1         1 Y5Y       0.062200
     51 H23         41.0860    15.1480    33.8630 h1         1 Y5Y       0.062200
     52 H24         37.7960    17.9230    33.2560 h5         1 Y5Y       0.046100
     53 C21         43.1990    13.2400    33.9200 c          1 Y5Y       0.640100
@<TRIPOS>BOND
     1     1     2 1   
     2     1    29 1   
     3     1    30 1   
     4     1    31 1   
     5     2    15 1   
     6     2    32 1   
     7     2    33 1   
     8     3     4 1   
     9     3    15 1   
    10     3    18 2   
    11     4     5 ar  
    12     4     8 ar  
    13     5    16 ar  
    14     5    34 1   
    15     6     7 ar  
    16     6    16 ar  
    17     6    17 1   
    18     7     8 ar  
    19     8    35 1   
    20     9    10 1   
    21     9    21 1   
    22     9    25 1   
    23     9    36 1   
    24    10    11 1   
    25    10    37 1   
    26    10    38 1   
    27    11    22 1   
    28    11    39 1   
    29    11    40 1   
    30    12    13 1   
    31    12    24 1   
    32    12    41 1   
    33    12    53 1   
    34    13    24 1   
    35    13    42 1   
    36    13    43 1   
    37    14    15 1   
    38    14    19 ar  
    39    14    28 ar  
    40    17    44 1   
    41    17    45 1   
    42    17    46 1   
    43    18    19 1   
    44    19    20 ar  
    45    20    21 1   
    46    20    26 ar  
    47    21    47 1   
    48    22    25 1   
    49    22    53 1   
    50    23    53 2   
    51    24    48 1   
    52    24    49 1   
    53    25    50 1   
    54    25    51 1   
    55    26    27 ar  
    56    27    28 ar  
    57    27    52 1   
@<TRIPOS>SUBSTRUCTURE
     1 Y5Y         1 TEMP              0 ****  ****    0 ROOT
