@<TRIPOS>MOLECULE
Y5Y
   53    57     1     0     0
SMALL
bcc


@<TRIPOS>ATOM
      1 C1          32.8780    16.1080    32.4690 c3         1 Y5Y      -0.112100
      2 C2          33.9540    15.4720    31.6090 c3         1 Y5Y       0.054300
      3 C4          35.1510    13.4120    32.5410 cc         1 Y5Y       0.458400
      4 C5          34.3090    12.3800    31.9440 ca         1 Y5Y      -0.355500
      5 C6          34.8920    11.2500    31.3790 ca         1 Y5Y       0.468200
      6 C8          32.8550    10.3890    30.8780 ca         1 Y5Y       0.675300
      7 N10         32.2010    11.4200    31.4080 nb         1 Y5Y      -0.707500
      8 C11         32.9180    12.3960    31.9350 ca         1 Y5Y       0.468200
      9 C16         39.8370    14.1680    35.7090 c5         1 Y5Y       0.233500
     10 C18         40.3910    12.9160    36.3790 c5         1 Y5Y      -0.116400
     11 C19         41.1660    12.2220    35.2630 c5         1 Y5Y       0.099000
     12 C23         42.8740    14.3170    32.6100 cx         1 Y5Y      -0.238700
     13 C24         44.2050    14.2430    31.9090 cx         1 Y5Y      -0.099900
     14 C30         35.9670    15.3680    33.0740 ca         1 Y5Y       0.450800
     15 N3          34.9540    14.7620    32.3910 na         1 Y5Y      -0.236000
     16 N7          34.1800    10.2680    30.8530 nb         1 Y5Y      -0.707500
     17 C9          32.0350     9.3000    30.2700 c3         1 Y5Y      -0.137400
     18 N12         36.2090    13.1280    33.2580 nd         1 Y5Y      -0.545100
     19 C13         36.7300    14.3400    33.6010 ca         1 Y5Y      -0.222200
     20 C14         37.8560    14.7210    34.3580 ca         1 Y5Y       0.776200
     21 N15         38.6640    13.8230    34.9310 nu         1 Y5Y      -0.856900
     22 N20         41.6080    13.3310    34.4240 n          1 Y5Y      -0.485800
     23 O22         42.8040    11.9920    33.0790 o          1 Y5Y      -0.615100
     24 C25         42.9560    14.1850    31.1090 cx         1 Y5Y      -0.099900
     25 C26         41.0080    14.5980    34.8230 c5         1 Y5Y       0.090000
     26 N27         38.1030    16.0260    34.4970 nb         1 Y5Y      -0.833000
     27 C28         37.2820    16.9070    33.9250 ca         1 Y5Y       0.707900
     28 N29         36.2020    16.6730    33.2040 nb         1 Y5Y      -0.744000
     29 H1          32.1520    16.6110    31.8310 hc         1 Y5Y       0.051033
     30 H2          32.3460    15.3690    33.0680 hc         1 Y5Y       0.051033
     31 H3          33.3030    16.8490    33.1450 hc         1 Y5Y       0.051033
     32 H4          34.4740    16.2360    31.0300 h1         1 Y5Y       0.065700
     33 H5          33.5260    14.7760    30.8900 h1         1 Y5Y       0.065700
     34 H6          35.9710    11.1460    31.3520 h4         1 Y5Y       0.035600
     35 H7          32.3620    13.2100    32.3890 h4         1 Y5Y       0.035600
     36 H8          39.5840    14.9490    36.4270 h1         1 Y5Y       0.088700
     37 H9          39.6180    12.2840    36.8150 hc         1 Y5Y       0.065700
     38 H10         41.0660    13.2160    37.1820 hc         1 Y5Y       0.065700
     39 H11         40.5330    11.5330    34.6970 h1         1 Y5Y       0.058700
     40 H12         42.0120    11.6490    35.6430 h1         1 Y5Y       0.058700
     41 H13         42.5960    15.2920    32.9860 hc         1 Y5Y       0.086700
     42 H14         44.7810    13.3350    32.0240 hc         1 Y5Y       0.080200
     43 H15         44.7910    15.1520    31.8870 hc         1 Y5Y       0.080200
     44 H16         32.6610     8.4780    29.9310 hc         1 Y5Y       0.063033
     45 H17         31.3080     8.9200    30.9880 hc         1 Y5Y       0.063033
     46 H18         31.4710     9.6820    29.4170 hc         1 Y5Y       0.063033
     47 H19         38.4300    12.8500    34.8110 hn         1 Y5Y       0.463800
     48 H20         42.6710    13.2340    30.6800 hc         1 Y5Y       0.080200
     49 H21         42.6700    15.0510    30.5260 hc         1 Y5Y       0.080200
     50 H22         41.7060    15.2100    35.4020 h1         1 Y5Y       0.062200
     51 H23         40.6740    15.1820    33.9670 h1         1 Y5Y       0.062200
     52 H24         37.5420    17.9490    34.0760 h5         1 Y5Y       0.046100
     53 C21         42.4300    13.1220    33.3800 c          1 Y5Y       0.707100
@<TRIPOS>BOND
     1     1     2 1   
     2     1    29 1   
     3     1    30 1   
     4     1    31 1   
     5     2    15 1   
     6     2    32 1   
     7     2    33 1   
     8     3     4 1   
     9     3    15 1   
    10     3    18 2   
    11     4     5 ar  
    12     4     8 ar  
    13     5    16 ar  
    14     5    34 1   
    15     6     7 ar  
    16     6    16 ar  
    17     6    17 1   
    18     7     8 ar  
    19     8    35 1   
    20     9    10 1   
    21     9    21 1   
    22     9    25 1   
    23     9    36 1   
    24    10    11 1   
    25    10    37 1   
    26    10    38 1   
    27    11    22 1   
    28    11    39 1   
    29    11    40 1   
    30    12    13 1   
    31    12    24 1   
    32    12    41 1   
    33    12    53 1   
    34    13    24 1   
    35    13    42 1   
    36    13    43 1   
    37    14    15 1   
    38    14    19 ar  
    39    14    28 ar  
    40    17    44 1   
    41    17    45 1   
    42    17    46 1   
    43    18    19 1   
    44    19    20 ar  
    45    20    21 1   
    46    20    26 ar  
    47    21    47 1   
    48    22    25 1   
    49    22    53 1   
    50    23    53 2   
    51    24    48 1   
    52    24    49 1   
    53    25    50 1   
    54    25    51 1   
    55    26    27 ar  
    56    27    28 ar  
    57    27    52 1   
@<TRIPOS>SUBSTRUCTURE
     1 Y5Y         1 TEMP              0 ****  ****    0 ROOT
