@<TRIPOS>MOLECULE
Y5Z
   71    73     1     0     0
SMALL
abcg2


@<TRIPOS>ATOM
      1 O10        -35.7000    66.9990     3.1350 o          1 Y5Z      -0.570000
      2 C02        -38.5290    64.9340     2.5610 cc         1 Y5Z       0.688800
      3 C04        -36.6970    66.3410     3.4030 c          1 Y5Z       0.617600
      4 C05        -38.7650    65.2270     6.1490 cc         1 Y5Z      -0.186000
      5 C06        -37.8190    65.9800     6.8070 cd         1 Y5Z      -0.150000
      6 C08        -37.2950    66.0900     4.6700 cc         1 Y5Z      -0.317600
      7 C09        -38.4350    65.2910     4.7770 cd         1 Y5Z       0.182400
      8 C12        -39.2750    72.8610     2.2660 ca         1 Y5Z      -0.153600
      9 C13        -38.0240    73.2430     2.7250 ca         1 Y5Z       0.210000
     10 C14        -39.9040    71.8140     2.9420 ca         1 Y5Z      -0.058000
     11 C15        -37.4140    72.6430     3.8110 ca         1 Y5Z      -0.181000
     12 C16        -39.3060    71.1930     4.0240 ca         1 Y5Z      -0.135000
     13 C17        -39.9080    73.5200     1.0800 c          1 Y5Z       0.610700
     14 C20        -42.0250    74.4790     0.2650 c3         1 Y5Z      -0.049300
     15 C21        -43.4330    73.8840     0.2630 c3         1 Y5Z      -0.074400
     16 C22        -43.4480    72.4510    -0.2710 c3         1 Y5Z      -0.166400
     17 C23        -44.7350    71.6900    -0.0190 c          1 Y5Z       0.597100
     18 C26        -42.0160    76.0210     0.4950 c          1 Y5Z       0.719000
     19 C30        -36.3320    68.8270     6.5510 c3         1 Y5Z      -0.090400
     20 C31        -36.9830    69.4900     5.3460 c3         1 Y5Z      -0.080400
     21 C32        -37.4050    70.9280     5.6530 c3         1 Y5Z      -0.021100
     22 C33        -38.0530    71.6030     4.4780 ca         1 Y5Z      -0.073300
     23 C35        -47.1730    71.8180     0.0440 c3         1 Y5Z      -0.035300
     24 C36        -47.5900    70.5800    -0.7720 c3         1 Y5Z      -0.034400
     25 C37        -48.8130    70.8090    -1.6670 c3         1 Y5Z      -0.194400
     26 C38        -50.1010    71.0430    -0.8620 c          1 Y5Z       0.730000
     27 C41        -47.2850    71.6750     1.5950 c          1 Y5Z       0.726000
     28 N01        -39.0590    64.6990     3.7210 nd         1 Y5Z      -0.661100
     29 N03        -37.4140    65.7100     2.3890 ns         1 Y5Z      -0.443400
     30 N07        -36.9290    66.4960     5.9290 na         1 Y5Z       0.058000
     31 N19        -41.2140    73.7770     1.2320 ns         1 Y5Z      -0.423900
     32 N25        -45.8700    72.3240    -0.3470 ns         1 Y5Z      -0.452900
     33 O18        -39.2730    73.7540     0.0610 o          1 Y5Z      -0.635100
     34 O24        -44.7240    70.5490     0.4320 o          1 Y5Z      -0.651100
     35 O27        -42.7880    76.6670    -0.2390 o          1 Y5Z      -0.733000
     36 O28        -41.2340    76.4620     1.3520 o          1 Y5Z      -0.733000
     37 O39        -50.4370    72.2300    -0.6530 o          1 Y5Z      -0.760000
     38 O40        -50.6980    70.0230    -0.4570 o          1 Y5Z      -0.760000
     39 H1         -39.5840    64.6910     6.6000 ha         1 Y5Z       0.145000
     40 H2         -37.7190    66.1800     7.8630 h4         1 Y5Z       0.138000
     41 H3         -40.8750    71.4710     2.6060 ha         1 Y5Z       0.151000
     42 H4         -36.4440    72.9960     4.1400 ha         1 Y5Z       0.106000
     43 H5         -39.8230    70.3830     4.5240 ha         1 Y5Z       0.113000
     44 H6         -41.5830    74.3020    -0.7200 h1         1 Y5Z       0.054700
     45 H7         -44.0660    74.5270    -0.3480 hc         1 Y5Z       0.069200
     46 H8         -43.8450    73.9120     1.2780 hc         1 Y5Z       0.069200
     47 H9         -42.6450    71.8720     0.1850 hc         1 Y5Z       0.032700
     48 H10        -43.2500    72.4670    -1.3480 hc         1 Y5Z       0.032700
     49 H13        -35.4600    69.4090     6.8650 hc         1 Y5Z       0.040200
     50 H14        -37.0250    68.8340     7.3980 hc         1 Y5Z       0.040200
     51 H15        -37.8620    68.9180     5.0360 hc         1 Y5Z       0.060700
     52 H16        -36.2940    69.4830     4.4980 hc         1 Y5Z       0.060700
     53 H17        -36.5330    71.5040     5.9710 hc         1 Y5Z       0.035200
     54 H18        -38.1010    70.9220     6.4960 hc         1 Y5Z       0.035200
     55 H19        -47.8720    72.6230    -0.2060 h1         1 Y5Z       0.062700
     56 H20        -47.7880    69.7410    -0.1050 hc         1 Y5Z       0.025200
     57 H21        -46.7580    70.2770    -1.4100 hc         1 Y5Z       0.025200
     58 H22        -48.9360    69.9310    -2.3080 hc         1 Y5Z      -0.012800
     59 H23        -48.6110    71.6590    -2.3270 hc         1 Y5Z      -0.012800
     60 H27        -41.5970    73.7030     2.1630 hn         1 Y5Z       0.309500
     61 H28        -45.8090    73.2850    -0.6370 hn         1 Y5Z       0.289500
     62 H24        -37.0620    65.8610     1.4520 hn         1 Y5Z       0.323500
     63 C29        -35.8550    67.4010     6.3010 c3         1 Y5Z       0.071600
     64 O42        -46.5650    72.4270     2.2780 o          1 Y5Z      -0.738500
     65 H11        -35.1050    67.3810     5.5150 h1         1 Y5Z       0.060200
     66 H12        -35.3860    67.0070     7.2040 h1         1 Y5Z       0.060200
     67 N11        -39.1020    64.4480     1.4310 nv         1 Y5Z      -1.020200
     68 F34        -37.3850    74.2590     2.1290 f          1 Y5Z      -0.165000
     69 O43        -48.1360    70.8700     2.0180 o          1 Y5Z      -0.738500
     70 H25        -39.7910    63.7270     1.5760 hn         1 Y5Z       0.480500
     71 H26        -38.5340    64.3160     0.6100 hn         1 Y5Z       0.480500
@<TRIPOS>BOND
     1     1     3 2   
     2     2    28 2   
     3     2    29 1   
     4     2    67 1   
     5     3     6 1   
     6     3    29 1   
     7     4     5 2   
     8     4     7 1   
     9     4    39 1   
    10     5    30 1   
    11     5    40 1   
    12     6     7 2   
    13     6    30 1   
    14     7    28 1   
    15     8     9 ar  
    16     8    10 ar  
    17     8    13 1   
    18     9    11 ar  
    19     9    68 1   
    20    10    12 ar  
    21    10    41 1   
    22    11    22 ar  
    23    11    42 1   
    24    12    22 ar  
    25    12    43 1   
    26    13    31 1   
    27    13    33 2   
    28    14    15 1   
    29    14    18 1   
    30    14    31 1   
    31    14    44 1   
    32    15    16 1   
    33    15    45 1   
    34    15    46 1   
    35    16    17 1   
    36    16    47 1   
    37    16    48 1   
    38    17    32 1   
    39    17    34 2   
    40    18    35 1   
    41    18    36 1   
    42    19    20 1   
    43    19    49 1   
    44    19    50 1   
    45    19    63 1   
    46    20    21 1   
    47    20    51 1   
    48    20    52 1   
    49    21    22 1   
    50    21    53 1   
    51    21    54 1   
    52    23    24 1   
    53    23    27 1   
    54    23    32 1   
    55    23    55 1   
    56    24    25 1   
    57    24    56 1   
    58    24    57 1   
    59    25    26 1   
    60    25    58 1   
    61    25    59 1   
    62    26    37 1   
    63    26    38 1   
    64    27    64 1   
    65    27    69 1   
    66    29    62 1   
    67    30    63 1   
    68    31    60 1   
    69    32    61 1   
    70    63    65 1   
    71    63    66 1   
    72    67    70 1   
    73    67    71 1   
@<TRIPOS>SUBSTRUCTURE
     1 Y5Z         1 TEMP              0 ****  ****    0 ROOT
