@<TRIPOS>MOLECULE
Y5Z
   71    73     1     0     0
SMALL
No Charge or Current Charge


@<TRIPOS>ATOM
      1 O10        -37.2880    66.6270     2.3230 o          1 Y5Z      -0.570000
      2 C02        -40.1120    65.1600     3.7930 cc         1 Y5Z       0.688800
      3 C04        -38.0380    66.1610     3.1640 c          1 Y5Z       0.617600
      4 C05        -38.2200    65.4890     6.7370 cc         1 Y5Z      -0.186000
      5 C06        -36.9590    66.0290     6.7730 cd         1 Y5Z      -0.150000
      6 C08        -37.7620    66.0400     4.5880 cc         1 Y5Z      -0.317600
      7 C09        -38.6590    65.5100     5.4580 cd         1 Y5Z       0.182400
      8 C12        -39.3790    73.0800     2.5340 ca         1 Y5Z      -0.153600
      9 C13        -38.1070    72.8100     1.9730 ca         1 Y5Z       0.210000
     10 C14        -39.6430    72.6000     3.8430 ca         1 Y5Z      -0.058000
     11 C15        -37.1370    72.0970     2.6970 ca         1 Y5Z      -0.181000
     12 C16        -38.6670    71.8860     4.5590 ca         1 Y5Z      -0.135000
     13 C17        -40.4310    73.8480     1.7570 c          1 Y5Z       0.610700
     14 C20        -42.6570    75.0810     1.9650 c3         1 Y5Z      -0.049300
     15 C21        -43.8790    74.1490     1.7480 c3         1 Y5Z      -0.074400
     16 C22        -43.6420    73.0050     0.7300 c3         1 Y5Z      -0.166400
     17 C23        -44.9260    72.2010     0.4760 c          1 Y5Z       0.597100
     18 C26        -43.0150    76.2720     2.9060 c          1 Y5Z       0.719000
     19 C30        -35.3860    68.5220     5.2850 c3         1 Y5Z      -0.090400
     20 C31        -36.4440    69.3390     4.5060 c3         1 Y5Z      -0.080400
     21 C32        -36.3540    70.8560     4.7710 c3         1 Y5Z      -0.021100
     22 C33        -37.4070    71.6330     3.9940 ca         1 Y5Z      -0.073300
     23 C35        -46.7370    71.7800    -1.2890 c3         1 Y5Z      -0.035300
     24 C36        -46.6570    70.2210    -1.2800 c3         1 Y5Z      -0.034400
     25 C37        -47.4360    69.5040    -2.4160 c3         1 Y5Z      -0.194400
     26 C38        -48.9640    69.6720    -2.2820 c          1 Y5Z       0.730000
     27 C41        -48.0040    72.4050    -0.6060 c          1 Y5Z       0.726000
     28 N01        -39.9050    65.0340     5.0870 nd         1 Y5Z      -0.661100
     29 N03        -39.2670    65.6790     2.8690 ns         1 Y5Z      -0.443400
     30 N07        -36.6970    66.3650     5.4350 na         1 Y5Z       0.058000
     31 N19        -41.4830    74.3470     2.5010 ns         1 Y5Z      -0.423900
     32 N25        -45.5030    72.4230    -0.7590 ns         1 Y5Z      -0.452900
     33 O18        -40.3840    74.0070     0.5440 o          1 Y5Z      -0.635100
     34 O24        -45.3730    71.4130     1.2970 o          1 Y5Z      -0.651100
     35 O27        -43.1250    77.3860     2.4110 o          1 Y5Z      -0.733000
     36 O28        -43.0790    76.0650     4.1100 o          1 Y5Z      -0.733000
     37 O39        -49.5000    70.5910    -2.8840 o          1 Y5Z      -0.760000
     38 O40        -49.5790    68.8560    -1.6120 o          1 Y5Z      -0.760000
     39 H1         -38.7750    65.1090     7.5890 ha         1 Y5Z       0.145000
     40 H2         -36.2660    66.1980     7.5890 h4         1 Y5Z       0.138000
     41 H3         -40.6100    72.7530     4.3180 ha         1 Y5Z       0.151000
     42 H4         -36.1670    71.9080     2.2430 ha         1 Y5Z       0.106000
     43 H5         -38.8960    71.5230     5.5590 ha         1 Y5Z       0.113000
     44 H6         -42.3810    75.5170     0.9970 h1         1 Y5Z       0.054700
     45 H7         -44.7220    74.7590     1.4000 hc         1 Y5Z       0.069200
     46 H8         -44.1830    73.7190     2.7110 hc         1 Y5Z       0.069200
     47 H9         -42.8800    72.3270     1.1330 hc         1 Y5Z       0.032700
     48 H10        -43.2840    73.4470    -0.2080 hc         1 Y5Z       0.032700
     49 H13        -34.3860    68.8880     5.0200 hc         1 Y5Z       0.040200
     50 H14        -35.5110    68.6960     6.3610 hc         1 Y5Z       0.040200
     51 H15        -37.4490    68.9930     4.7780 hc         1 Y5Z       0.060700
     52 H16        -36.3230    69.1560     3.4310 hc         1 Y5Z       0.060700
     53 H17        -35.3510    71.2100     4.5020 hc         1 Y5Z       0.035200
     54 H18        -36.4660    71.0410     5.8470 hc         1 Y5Z       0.035200
     55 H19        -46.7960    72.0830    -2.3420 h1         1 Y5Z       0.062700
     56 H20        -46.9680    69.8220    -0.3070 hc         1 Y5Z       0.025200
     57 H21        -45.6030    69.9370    -1.3960 hc         1 Y5Z       0.025200
     58 H22        -47.1640    68.4460    -2.3090 hc         1 Y5Z      -0.012800
     59 H23        -47.0730    69.9480    -3.3520 hc         1 Y5Z      -0.012800
     60 H27        -41.4280    74.2290     3.5050 hn         1 Y5Z       0.309500
     61 H28        -45.0390    73.1060    -1.3450 hn         1 Y5Z       0.289500
     62 H24        -39.5570    65.7400     1.9080 hn         1 Y5Z       0.323500
     63 C29        -35.4370    67.0010     5.0090 c3         1 Y5Z       0.071600
     64 O42        -48.3530    73.5190    -0.9770 o          1 Y5Z      -0.738500
     65 H11        -35.2810    66.8160     3.9400 h1         1 Y5Z       0.060200
     66 H12        -34.6140    66.5150     5.5470 h1         1 Y5Z       0.060200
     67 N11        -41.2760    64.7290     3.3290 nv         1 Y5Z      -1.020200
     68 F34        -37.7720    73.2470     0.7390 f          1 Y5Z      -0.165000
     69 O43        -48.5730    71.8050     0.2980 o          1 Y5Z      -0.738500
     70 H25        -41.8060    64.1810     3.9970 hn         1 Y5Z       0.480500
     71 H26        -41.3070    64.3990     2.3730 hn         1 Y5Z       0.480500
@<TRIPOS>BOND
     1     1     3 2   
     2     2    28 2   
     3     2    29 1   
     4     2    67 1   
     5     3     6 1   
     6     3    29 1   
     7     4     5 2   
     8     4     7 1   
     9     4    39 1   
    10     5    30 1   
    11     5    40 1   
    12     6     7 2   
    13     6    30 1   
    14     7    28 1   
    15     8     9 ar  
    16     8    10 ar  
    17     8    13 1   
    18     9    11 ar  
    19     9    68 1   
    20    10    12 ar  
    21    10    41 1   
    22    11    22 ar  
    23    11    42 1   
    24    12    22 ar  
    25    12    43 1   
    26    13    31 1   
    27    13    33 2   
    28    14    15 1   
    29    14    18 1   
    30    14    31 1   
    31    14    44 1   
    32    15    16 1   
    33    15    45 1   
    34    15    46 1   
    35    16    17 1   
    36    16    47 1   
    37    16    48 1   
    38    17    32 1   
    39    17    34 2   
    40    18    35 1   
    41    18    36 1   
    42    19    20 1   
    43    19    49 1   
    44    19    50 1   
    45    19    63 1   
    46    20    21 1   
    47    20    51 1   
    48    20    52 1   
    49    21    22 1   
    50    21    53 1   
    51    21    54 1   
    52    23    24 1   
    53    23    27 1   
    54    23    32 1   
    55    23    55 1   
    56    24    25 1   
    57    24    56 1   
    58    24    57 1   
    59    25    26 1   
    60    25    58 1   
    61    25    59 1   
    62    26    37 1   
    63    26    38 1   
    64    27    64 1   
    65    27    69 1   
    66    29    62 1   
    67    30    63 1   
    68    31    60 1   
    69    32    61 1   
    70    63    65 1   
    71    63    66 1   
    72    67    70 1   
    73    67    71 1   
@<TRIPOS>SUBSTRUCTURE
     1 Y5Z         1 TEMP              0 ****  ****    0 ROOT
