@<TRIPOS>MOLECULE
Y61
   63    66     1     0     0
SMALL
No Charge or Current Charge


@<TRIPOS>ATOM
      1 N03          1.9750    10.3370    35.0560 ns         1 Y61      -0.509900
      2 C05          1.5830     7.9160    35.2500 ca         1 Y61      -0.106600
      3 C06          0.6810     6.8240    35.4170 ca         1 Y61      -0.069300
      4 C07         -0.8220     6.9440    35.1650 c3         1 Y61      -0.041800
      5 C08          1.1680     5.5780    35.8620 ca         1 Y61      -0.078000
      6 C09          2.5290     5.3950    36.1450 ca         1 Y61      -0.164000
      7 C10          3.4280     6.4530    35.9880 ca         1 Y61       0.305000
      8 C12          5.9040     7.1760    36.1450 cy         1 Y61       0.183500
      9 C13          7.3690     6.6420    36.3490 cy         1 Y61       0.123800
     10 C15          6.4230     7.5610    34.7100 cy         1 Y61       0.123800
     11 C16          2.9570     7.7010    35.5460 ca         1 Y61      -0.165000
     12 C18          2.5710    12.6540    35.5620 ca         1 Y61      -0.092300
     13 C01          2.1430    11.9240    33.1580 c3         1 Y61      -0.105100
     14 C02          1.7800    11.7240    34.6450 c3         1 Y61       0.164000
     15 C04          1.1290     9.2900    34.7610 c          1 Y61       0.611700
     16 N11          4.7790     6.2400    36.2710 nu         1 Y61      -0.951200
     17 N14          7.7740     7.6950    35.3560 n6         1 Y61      -0.840400
     18 O17          0.1080     9.4780    34.1130 o          1 Y61      -0.588100
     19 C19          3.9800    12.6120    35.5900 ca         1 Y61      -0.094000
     20 C20          4.6950    13.4680    36.4420 ca         1 Y61      -0.110000
     21 C21          4.0110    14.3670    37.2760 ca         1 Y61      -0.090000
     22 C22          2.6010    14.4170    37.2700 ca         1 Y61      -0.012000
     23 C23          1.8700    15.3530    38.1300 cc         1 Y61      -0.145000
     24 C24          2.3510    15.7470    39.3540 cd         1 Y61      -0.129000
     25 C25          1.4720    16.6400    40.0260 cd         1 Y61      -0.122000
     26 C26          0.3260    16.9250    39.3220 cc         1 Y61      -0.252300
     27 C27         -0.8090    17.8200    39.7320 c3         1 Y61       0.187300
     28 N28         -1.0630    18.8810    38.7590 ns         1 Y61      -0.523900
     29 C29         -0.3210    20.0260    38.5800 c          1 Y61       0.608100
     30 C30          0.8910    20.2660    39.4820 c3         1 Y61      -0.179100
     31 O31         -0.6450    20.8260    37.7180 o          1 Y61      -0.601100
     32 S32          0.2920    16.0550    37.7860 ss         1 Y61       0.226000
     33 C33          1.8930    13.5570    36.4050 ca         1 Y61      -0.082000
     34 H1           2.7820    10.1200    35.6250 hn         1 Y61       0.317500
     35 H2          -1.0360     7.0590    34.0960 hc         1 Y61       0.046700
     36 H3          -1.3660     6.0560    35.5080 hc         1 Y61       0.046700
     37 H4          -1.2480     7.8020    35.6970 hc         1 Y61       0.046700
     38 H5           0.4860     4.7400    35.9940 ha         1 Y61       0.113000
     39 H6           2.8800     4.4250    36.4860 ha         1 Y61       0.111000
     40 H7           5.6950     8.0560    36.7680 h1         1 Y61       0.065700
     41 H8           7.5020     5.6060    36.0100 h1         1 Y61       0.053700
     42 H9           7.7590     6.7520    37.3680 h1         1 Y61       0.053700
     43 H10          5.9850     8.4760    34.2940 h1         1 Y61       0.053700
     44 H11          6.3290     6.7410    33.9870 h1         1 Y61       0.053700
     45 H12          3.6760     8.5010    35.4110 ha         1 Y61       0.115000
     46 H13          2.0100    12.9740    32.8720 hc         1 Y61       0.045033
     47 H14          3.1830    11.6420    32.9620 hc         1 Y61       0.045033
     48 H15          1.4970    11.3150    32.5150 hc         1 Y61       0.045033
     49 H16          0.7120    11.9590    34.7580 h1         1 Y61       0.073700
     50 H17          4.9990     5.2950    36.5920 hn         1 Y61       0.475000
     51 H18          8.5940     7.5060    34.7640 hn         1 Y61       0.413000
     52 H20          4.5230    11.9180    34.9530 ha         1 Y61       0.107000
     53 H21          5.7820    13.4360    36.4550 ha         1 Y61       0.115000
     54 H22          4.5840    15.0320    37.9170 ha         1 Y61       0.115000
     55 H23          3.2920    15.4130    39.7800 ha         1 Y61       0.137000
     56 H24          1.6890    17.0580    41.0050 ha         1 Y61       0.132000
     57 H25         -1.7210    17.2150    39.8290 h1         1 Y61       0.056700
     58 H26         -0.6050    18.2610    40.7170 h1         1 Y61       0.056700
     59 H27         -1.8580    18.7770    38.1410 hn         1 Y61       0.317500
     60 H28          1.3830    21.2220    39.2720 hc         1 Y61       0.062033
     61 H29          0.5880    20.1940    40.5320 hc         1 Y61       0.062033
     62 H30          1.5910    19.4320    39.3730 hc         1 Y61       0.062033
     63 H31          0.8060    13.5830    36.3930 ha         1 Y61       0.118000
@<TRIPOS>BOND
     1     1    14 1   
     2     1    15 1   
     3     1    34 1   
     4     2     3 ar  
     5     2    11 ar  
     6     2    15 1   
     7     3     4 1   
     8     3     5 ar  
     9     4    35 1   
    10     4    36 1   
    11     4    37 1   
    12     5     6 ar  
    13     5    38 1   
    14     6     7 ar  
    15     6    39 1   
    16     7    11 ar  
    17     7    16 1   
    18     8     9 1   
    19     8    10 1   
    20     8    16 1   
    21     8    40 1   
    22     9    17 1   
    23     9    41 1   
    24     9    42 1   
    25    10    17 1   
    26    10    43 1   
    27    10    44 1   
    28    11    45 1   
    29    12    14 1   
    30    12    19 ar  
    31    12    33 ar  
    32    13    14 1   
    33    13    46 1   
    34    13    47 1   
    35    13    48 1   
    36    14    49 1   
    37    15    18 2   
    38    16    50 1   
    39    17    51 1   
    40    19    20 ar  
    41    19    52 1   
    42    20    21 ar  
    43    20    53 1   
    44    21    22 ar  
    45    21    54 1   
    46    22    23 1   
    47    22    33 ar  
    48    23    24 2   
    49    23    32 1   
    50    24    25 1   
    51    24    55 1   
    52    25    26 2   
    53    25    56 1   
    54    26    27 1   
    55    26    32 1   
    56    27    28 1   
    57    27    57 1   
    58    27    58 1   
    59    28    29 1   
    60    28    59 1   
    61    29    30 1   
    62    29    31 2   
    63    30    60 1   
    64    30    61 1   
    65    30    62 1   
    66    33    63 1   
@<TRIPOS>SUBSTRUCTURE
     1 Y61         1 TEMP              0 ****  ****    0 ROOT
