@<TRIPOS>MOLECULE
Y61
   63    66     1     0     0
SMALL
abcg2


@<TRIPOS>ATOM
      1 N03          1.8680    10.2830    34.7820 ns         1 Y61      -0.509900
      2 C05          1.7450     8.0430    35.6210 ca         1 Y61      -0.106600
      3 C06          0.8190     6.9970    35.6060 ca         1 Y61      -0.069300
      4 C07         -0.6690     7.2100    35.6130 c3         1 Y61      -0.041800
      5 C08          1.3390     5.7040    35.5630 ca         1 Y61      -0.078000
      6 C09          2.6960     5.4460    35.5540 ca         1 Y61      -0.164000
      7 C10          3.6230     6.4950    35.5800 ca         1 Y61       0.305000
      8 C12          5.9300     7.2440    35.9150 cy         1 Y61       0.183500
      9 C13          7.3990     6.8050    35.8880 cy         1 Y61       0.123800
     10 C15          6.3540     8.2990    34.8730 cy         1 Y61       0.123800
     11 C16          3.1170     7.7980    35.6090 ca         1 Y61      -0.165000
     12 C18          2.3830    12.3800    35.9500 ca         1 Y61      -0.092300
     13 C01          2.1790    12.2870    33.4590 c3         1 Y61      -0.105100
     14 C02          1.6800    11.7190    34.7820 c3         1 Y61       0.164000
     15 C04          1.2990     9.4710    35.6920 c          1 Y61       0.611700
     16 N11          4.9730     6.2440    35.5420 nu         1 Y61      -0.951200
     17 N14          7.7480     8.1050    35.2980 n6         1 Y61      -0.840400
     18 O17          0.4910     9.8670    36.5190 o          1 Y61      -0.588100
     19 C19          3.6820    12.0210    36.2980 ca         1 Y61      -0.094000
     20 C20          4.3240    12.6640    37.3460 ca         1 Y61      -0.110000
     21 C21          3.6840    13.6710    38.0510 ca         1 Y61      -0.090000
     22 C22          2.3790    14.0410    37.7210 ca         1 Y61      -0.012000
     23 C23          1.6960    15.0820    38.4880 cc         1 Y61      -0.145000
     24 C24          1.8850    15.4350    39.7940 cd         1 Y61      -0.129000
     25 C25          1.0500    16.5030    40.2110 cd         1 Y61      -0.122000
     26 C26          0.2290    16.9540    39.2230 cc         1 Y61      -0.252300
     27 C27         -0.8060    18.0330    39.3000 c3         1 Y61       0.187300
     28 N28         -0.8850    18.8560    38.1150 ns         1 Y61      -0.523900
     29 C29          0.0300    19.7610    37.6970 c          1 Y61       0.608100
     30 C30          1.2650    19.9160    38.5470 c3         1 Y61      -0.179100
     31 O31         -0.1430    20.4080    36.6760 o          1 Y61      -0.601100
     32 S32          0.4800    16.0780    37.7640 ss         1 Y61       0.226000
     33 C33          1.7440    13.3810    36.6670 ca         1 Y61      -0.082000
     34 H1           2.5040     9.8860    34.1080 hn         1 Y61       0.317500
     35 H2          -0.9830     7.9610    34.8870 hc         1 Y61       0.046700
     36 H3          -1.1850     6.2820    35.3680 hc         1 Y61       0.046700
     37 H4          -1.0290     7.5390    36.5890 hc         1 Y61       0.046700
     38 H5           0.6530     4.8650    35.5360 ha         1 Y61       0.113000
     39 H6           3.0480     4.4210    35.5260 ha         1 Y61       0.111000
     40 H7           5.6730     7.7230    36.8680 h1         1 Y61       0.065700
     41 H8           7.5400     5.9540    35.2110 h1         1 Y61       0.053700
     42 H9           7.8750     6.5790    36.8430 h1         1 Y61       0.053700
     43 H10          5.9720     9.3160    34.9920 h1         1 Y61       0.053700
     44 H11          6.1360     7.9540    33.8560 h1         1 Y61       0.053700
     45 H12          3.7970     8.6400    35.6390 ha         1 Y61       0.115000
     46 H13          2.0200    13.3640    33.4280 hc         1 Y61       0.045033
     47 H14          3.2470    12.1020    33.3300 hc         1 Y61       0.045033
     48 H15          1.6460    11.8400    32.6190 hc         1 Y61       0.045033
     49 H16          0.6100    11.9270    34.8630 h1         1 Y61       0.073700
     50 H17          5.2390     5.2960    35.7620 hn         1 Y61       0.475000
     51 H18          8.4200     8.0610    34.5440 hn         1 Y61       0.413000
     52 H20          4.1960    11.2360    35.7540 ha         1 Y61       0.107000
     53 H21          5.3360    12.3870    37.6090 ha         1 Y61       0.115000
     54 H22          4.2070    14.1800    38.8510 ha         1 Y61       0.115000
     55 H23          2.5930    14.9400    40.4450 ha         1 Y61       0.137000
     56 H24          1.0590    16.9250    41.2070 ha         1 Y61       0.132000
     57 H25         -1.7940    17.5910    39.4360 h1         1 Y61       0.056700
     58 H26         -0.6170    18.6340    40.1930 h1         1 Y61       0.056700
     59 H27         -1.7090    18.7630    37.5420 hn         1 Y61       0.317500
     60 H28          1.8500    20.7560    38.1830 hc         1 Y61       0.062033
     61 H29          1.0240    20.0860    39.5970 hc         1 Y61       0.062033
     62 H30          1.8820    19.0170    38.5010 hc         1 Y61       0.062033
     63 H31          0.7200    13.6330    36.4120 ha         1 Y61       0.118000
@<TRIPOS>BOND
     1     1    14 1   
     2     1    15 1   
     3     1    34 1   
     4     2     3 ar  
     5     2    11 ar  
     6     2    15 1   
     7     3     4 1   
     8     3     5 ar  
     9     4    35 1   
    10     4    36 1   
    11     4    37 1   
    12     5     6 ar  
    13     5    38 1   
    14     6     7 ar  
    15     6    39 1   
    16     7    11 ar  
    17     7    16 1   
    18     8     9 1   
    19     8    10 1   
    20     8    16 1   
    21     8    40 1   
    22     9    17 1   
    23     9    41 1   
    24     9    42 1   
    25    10    17 1   
    26    10    43 1   
    27    10    44 1   
    28    11    45 1   
    29    12    14 1   
    30    12    19 ar  
    31    12    33 ar  
    32    13    14 1   
    33    13    46 1   
    34    13    47 1   
    35    13    48 1   
    36    14    49 1   
    37    15    18 2   
    38    16    50 1   
    39    17    51 1   
    40    19    20 ar  
    41    19    52 1   
    42    20    21 ar  
    43    20    53 1   
    44    21    22 ar  
    45    21    54 1   
    46    22    23 1   
    47    22    33 ar  
    48    23    24 2   
    49    23    32 1   
    50    24    25 1   
    51    24    55 1   
    52    25    26 2   
    53    25    56 1   
    54    26    27 1   
    55    26    32 1   
    56    27    28 1   
    57    27    57 1   
    58    27    58 1   
    59    28    29 1   
    60    28    59 1   
    61    29    30 1   
    62    29    31 2   
    63    30    60 1   
    64    30    61 1   
    65    30    62 1   
    66    33    63 1   
@<TRIPOS>SUBSTRUCTURE
     1 Y61         1 TEMP              0 ****  ****    0 ROOT
