@<TRIPOS>MOLECULE
Y62
   28    29     1     0     0
SMALL
abcg2


@<TRIPOS>ATOM
      1 C14         -4.6350     4.9390    10.1810 ca         1 Y62      -0.220000
      2 C13         -4.6720     5.5210     8.9380 ca         1 Y62      -0.005000
      3 C12         -5.9130     5.7250     8.3280 ca         1 Y62      -0.109000
      4 C15         -6.0190     6.3310     7.0450 cg         1 Y62       0.328000
      5 C11         -7.0550     5.3230     9.0120 ca         1 Y62       0.420900
      6 C01         -5.4250     1.8580    14.0590 ca         1 Y62      -0.022000
      7 C02         -5.0290     1.2350    15.2300 ca         1 Y62      -0.187200
      8 C03         -5.4800     1.6630    16.4680 ca         1 Y62      -0.020000
      9 C04         -6.3480     2.7370    16.5280 ca         1 Y62      -0.122000
     10 C05         -6.7620     3.3610    15.3610 ca         1 Y62       0.190000
     11 C06         -6.3040     2.9300    14.1160 ca         1 Y62      -0.171600
     12 C07         -6.8030     3.5500    12.8410 c          1 Y62       0.628700
     13 C09         -5.8470     4.5770    10.7860 ca         1 Y62       0.508900
     14 N08         -5.7870     4.0040    12.0450 ns         1 Y62      -0.323900
     15 N10         -7.0220     4.7630    10.2080 nb         1 Y62      -0.684000
     16 N16         -6.1110     6.8230     6.0070 n1         1 Y62      -0.442000
     17 O17         -7.9810     3.6050    12.5930 o          1 Y62      -0.484100
     18 O19         -3.7700    -0.4080    16.1940 o          1 Y62      -0.390000
     19 O20         -3.7410    -0.2490    14.0650 o          1 Y62      -0.390000
     20 H1          -3.6900     4.7670    10.6800 ha         1 Y62       0.129000
     21 H2          -3.7560     5.8160     8.4440 ha         1 Y62       0.134000
     22 H3          -8.0350     5.4630     8.5690 h4         1 Y62       0.039100
     23 H4          -5.0650     1.5080    13.1000 ha         1 Y62       0.159000
     24 H5          -5.1660     1.1790    17.3810 ha         1 Y62       0.160000
     25 H6          -6.7000     3.0910    17.4870 ha         1 Y62       0.149000
     26 H8          -4.8570     3.9330    12.4350 hn         1 Y62       0.161000
     27 CL1         -7.8170     4.7110    15.4870 cl         1 Y62      -0.137000
     28 N18         -4.1110     0.1070    15.1570 no         1 Y62       0.697200
@<TRIPOS>BOND
     1     1     2 ar  
     2     1    13 ar  
     3     1    20 1   
     4     2     3 ar  
     5     2    21 1   
     6     3     4 1   
     7     3     5 ar  
     8     4    16 3   
     9     5    15 ar  
    10     5    22 1   
    11     6     7 ar  
    12     6    11 ar  
    13     6    23 1   
    14     7     8 ar  
    15     7    28 1   
    16     8     9 ar  
    17     8    24 1   
    18     9    10 ar  
    19     9    25 1   
    20    10    11 ar  
    21    10    27 1   
    22    11    12 1   
    23    12    14 1   
    24    12    17 2   
    25    13    14 1   
    26    13    15 ar  
    27    14    26 1   
    28    18    28 1   
    29    19    28 1   
@<TRIPOS>SUBSTRUCTURE
     1 Y62         1 TEMP              0 ****  ****    0 ROOT
