@<TRIPOS>MOLECULE
Y62
   28    29     1     0     0
SMALL
No Charge or Current Charge


@<TRIPOS>ATOM
      1 C14         -4.6090     5.1340    10.1990 ca         1 Y62      -0.220000
      2 C13         -4.6760     5.6610     8.8990 ca         1 Y62      -0.005000
      3 C12         -5.9110     5.6070     8.2290 ca         1 Y62      -0.109000
      4 C15         -6.0560     6.1220     6.9020 cg         1 Y62       0.328000
      5 C11         -7.0130     5.0260     8.8790 ca         1 Y62       0.420900
      6 C01         -5.4040     2.0380    14.0970 ca         1 Y62      -0.022000
      7 C02         -5.0450     1.2200    15.1940 ca         1 Y62      -0.187200
      8 C03         -5.5890     1.4960    16.4660 ca         1 Y62      -0.020000
      9 C04         -6.4720     2.5720    16.6300 ca         1 Y62      -0.122000
     10 C05         -6.8310     3.3850    15.5440 ca         1 Y62       0.190000
     11 C06         -6.2990     3.1290    14.2530 ca         1 Y62      -0.171600
     12 C07         -6.6700     3.9750    13.0500 c          1 Y62       0.628700
     13 C09         -5.7680     4.6010    10.7800 ca         1 Y62       0.508900
     14 N08         -5.7250     4.0030    12.0450 ns         1 Y62      -0.323900
     15 N10         -6.9470     4.5170    10.1330 nb         1 Y62      -0.684000
     16 N16         -6.1640     6.5440     5.8200 n1         1 Y62      -0.442000
     17 O17         -7.7380     4.5640    12.9600 o          1 Y62      -0.484100
     18 O19         -3.8310    -0.6300    15.9970 o          1 Y62      -0.390000
     19 O20         -3.6350    -0.1330    13.8820 o          1 Y62      -0.390000
     20 H1          -3.6740     5.1440    10.7520 ha         1 Y62       0.129000
     21 H2          -3.7950     6.0920     8.4260 ha         1 Y62       0.134000
     22 H3          -7.9810     4.9580     8.3840 h4         1 Y62       0.039100
     23 H4          -5.0000     1.8040    13.1130 ha         1 Y62       0.159000
     24 H5          -5.3330     0.8870    17.3320 ha         1 Y62       0.160000
     25 H6          -6.8800     2.7850    17.6150 ha         1 Y62       0.149000
     26 H8          -4.8490     3.5480    12.2570 hn         1 Y62       0.161000
     27 Cl1         -7.9040     4.7430    15.8960 cl         1 Y62      -0.137000
     28 N18         -4.1030     0.0670    15.0110 no         1 Y62       0.697200
@<TRIPOS>BOND
     1     1     2 ar  
     2     1    13 ar  
     3     1    20 1   
     4     2     3 ar  
     5     2    21 1   
     6     3     4 1   
     7     3     5 ar  
     8     4    16 3   
     9     5    15 ar  
    10     5    22 1   
    11     6     7 ar  
    12     6    11 ar  
    13     6    23 1   
    14     7     8 ar  
    15     7    28 1   
    16     8     9 ar  
    17     8    24 1   
    18     9    10 ar  
    19     9    25 1   
    20    10    11 ar  
    21    10    27 1   
    22    11    12 1   
    23    12    14 1   
    24    12    17 2   
    25    13    14 1   
    26    13    15 ar  
    27    14    26 1   
    28    18    28 1   
    29    19    28 1   
@<TRIPOS>SUBSTRUCTURE
     1 Y62         1 TEMP              0 ****  ****    0 ROOT
