@<TRIPOS>MOLECULE
Y63
   84    91     1     0     0
SMALL
abcg2


@<TRIPOS>ATOM
      1 C10          3.3770    15.8300    38.2690 cp         1 Y63      -0.111500
      2 C13          5.3590    13.4750    35.8390 c1         1 Y63      -0.223000
      3 C15          7.5400    15.2010    38.0680 ca         1 Y63      -0.266000
      4 C17         11.1530    12.9950    35.9600 c5         1 Y63      -0.083400
      5 C20         11.2020    15.2360    37.1380 c6         1 Y63       0.191800
      6 C21         11.8190    14.3740    36.0390 c5         1 Y63       0.083200
      7 C24         13.5550    16.1500    34.4620 c3         1 Y63      -0.126400
      8 C01          4.2530    13.8270    36.1610 cg         1 Y63      -0.123000
      9 C02          2.8920    14.1670    36.4280 ca         1 Y63       0.053000
     10 C03          1.9410    13.5290    35.6570 ca         1 Y63      -0.093000
     11 C04          0.5730    13.7960    35.8050 ca         1 Y63      -0.112000
     12 C05          0.1590    14.7160    36.7260 ca         1 Y63      -0.095000
     13 C06          1.0940    15.3960    37.5390 ca         1 Y63      -0.042000
     14 C07          0.6400    16.3490    38.4790 ca         1 Y63      -0.098000
     15 C08          1.5210    17.0190    39.2760 ca         1 Y63      -0.107000
     16 C09          2.8960    16.7500    39.1670 ca         1 Y63      -0.079000
     17 C11          4.8450    15.6160    38.2400 cp         1 Y63       0.371500
     18 C12          5.4240    14.6690    39.0320 ca         1 Y63       0.131000
     19 C14          6.8160    14.4590    39.0270 ca         1 Y63       0.081000
     20 C16          6.8690    16.2250    37.3770 ca         1 Y63       0.391900
     21 C18          8.9480    14.8880    37.9960 ca         1 Y63       0.466900
     22 C19         15.7270    17.4550    34.0500 c          1 Y63       0.717000
     23 C23         12.1220    15.8950    34.0440 c          1 Y63       0.602100
     24 C25         14.3100    17.0990    33.5510 c3         1 Y63      -0.205400
     25 C30         10.0320    14.7010    34.6420 c5         1 Y63       0.083200
     26 C31          9.9390    13.2200    35.0340 c5         1 Y63      -0.083400
     27 C34          9.2780    15.5810    35.6450 c6         1 Y63       0.191800
     28 C36          8.6940    13.6050    39.8710 ca         1 Y63       0.426300
     29 C38         10.6750    12.7560    40.8720 c3         1 Y63       0.200600
     30 C39         11.0340    11.9430    42.1060 c5         1 Y63       0.170200
     31 C41          9.5420    11.6970    43.9350 c5         1 Y63       0.161300
     32 C42          9.9890    10.2950    43.5260 c5         1 Y63      -0.099900
     33 C43         10.4230    10.5250    42.0830 c5         1 Y63      -0.087900
     34 C44         11.6350    12.9550    44.1940 c5         1 Y63       0.161300
     35 C45         12.8110    13.0980    43.2430 c5         1 Y63      -0.099900
     36 C46         12.5620    11.9490    42.2740 c5         1 Y63      -0.087900
     37 C48          2.4860    15.1260    37.4120 ca         1 Y63       0.014000
     38 F13          4.6690    13.9130    39.8350 f          1 Y63      -0.149000
     39 N17          5.5810    16.4370    37.4660 nb         1 Y63      -0.666000
     40 N19          9.7480    15.2960    36.9980 nh         1 Y63      -0.764300
     41 N22         11.4540    14.9610    34.7590 n          1 Y63      -0.421800
     42 N35          9.4860    14.1700    38.9690 nb         1 Y63      -0.374000
     43 N40         10.5130    12.5970    43.3290 n3         1 Y63      -0.704600
     44 N47          7.3810    13.6260    39.9130 nb         1 Y63      -0.233000
     45 O01         15.9710    17.2780    35.2600 o          1 Y63      -0.738500
     46 O03         16.5050    17.9220    33.1930 o          1 Y63      -0.738500
     47 O29         11.5900    16.4760    33.1080 o          1 Y63      -0.609100
     48 O37          9.2580    12.9060    40.8390 os         1 Y63      -0.425300
     49 H1           6.3520    13.1850    35.5790 ha         1 Y63       0.257000
     50 H2          11.8450    12.2750    35.5250 hc         1 Y63       0.049200
     51 H3          10.8750    12.6230    36.9470 hc         1 Y63       0.049200
     52 H4          11.4510    14.8450    38.1200 h1         1 Y63       0.072700
     53 H5          11.5950    16.2550    37.0630 h1         1 Y63       0.072700
     54 H6          12.8970    14.3200    36.1790 h1         1 Y63       0.099200
     55 H7          13.5570    16.5440    35.4820 hc         1 Y63       0.060200
     56 H8          14.0820    15.1930    34.5250 hc         1 Y63       0.060200
     57 H9           2.2650    12.8080    34.9180 ha         1 Y63       0.118000
     58 H10         -0.1430    13.2760    35.1830 ha         1 Y63       0.112000
     59 H11         -0.8930    14.9410    36.8460 ha         1 Y63       0.110000
     60 H12         -0.4240    16.5370    38.5540 ha         1 Y63       0.109000
     61 H13          1.1720    17.7500    39.9940 ha         1 Y63       0.114000
     62 H14          3.5920    17.2750    39.8090 ha         1 Y63       0.122000
     63 H15          7.4200    16.9240    36.7610 h4         1 Y63       0.029100
     64 H16         14.3790    16.6890    32.5410 hc         1 Y63       0.035700
     65 H17         13.7540    18.0360    33.4480 hc         1 Y63       0.035700
     66 H18          9.6650    14.9110    33.6400 h1         1 Y63       0.099200
     67 H19         10.0070    12.5970    34.1420 hc         1 Y63       0.049200
     68 H20          8.9890    12.9880    35.5160 hc         1 Y63       0.049200
     69 H21          9.4160    16.6380    35.4010 h1         1 Y63       0.072700
     70 H22          8.2200    15.3470    35.5610 h1         1 Y63       0.072700
     71 H24         11.1580    13.7360    40.9140 h1         1 Y63       0.052700
     72 H25         11.0210    12.2470    39.9670 h1         1 Y63       0.052700
     73 H26          8.5390    11.8990    43.5470 h1         1 Y63       0.046450
     74 H27          9.5020    11.8440    45.0160 h1         1 Y63       0.046450
     75 H28         10.8340     9.9760    44.1420 hc         1 Y63       0.048700
     76 H29          9.2050     9.5430    43.6270 hc         1 Y63       0.048700
     77 H30          9.5520    10.4790    41.4250 hc         1 Y63       0.053450
     78 H31         11.1400     9.7870    41.7200 hc         1 Y63       0.053450
     79 H32         11.8540    12.1690    44.9320 h1         1 Y63       0.046450
     80 H33         11.4260    13.8710    44.7510 h1         1 Y63       0.046450
     81 H34         12.7780    14.0590    42.7250 hc         1 Y63       0.048700
     82 H35         13.7720    13.0310    43.7530 hc         1 Y63       0.048700
     83 H36         12.8850    11.0080    42.7270 hc         1 Y63       0.053450
     84 H37         13.0950    12.0490    41.3250 hc         1 Y63       0.053450
@<TRIPOS>BOND
     1     1    16 ar  
     2     1    17 1   
     3     1    37 ar  
     4     2     8 3   
     5     2    49 1   
     6     3    19 ar  
     7     3    20 ar  
     8     3    21 ar  
     9     4     6 1   
    10     4    26 1   
    11     4    50 1   
    12     4    51 1   
    13     5     6 1   
    14     5    40 1   
    15     5    52 1   
    16     5    53 1   
    17     6    41 1   
    18     6    54 1   
    19     7    23 1   
    20     7    24 1   
    21     7    55 1   
    22     7    56 1   
    23     8     9 1   
    24     9    10 ar  
    25     9    37 ar  
    26    10    11 ar  
    27    10    57 1   
    28    11    12 ar  
    29    11    58 1   
    30    12    13 ar  
    31    12    59 1   
    32    13    14 ar  
    33    13    37 ar  
    34    14    15 ar  
    35    14    60 1   
    36    15    16 ar  
    37    15    61 1   
    38    16    62 1   
    39    17    18 ar  
    40    17    39 ar  
    41    18    19 ar  
    42    18    38 1   
    43    19    44 ar  
    44    20    39 ar  
    45    20    63 1   
    46    21    40 1   
    47    21    42 ar  
    48    22    24 1   
    49    22    45 1   
    50    22    46 1   
    51    23    41 1   
    52    23    47 2   
    53    24    64 1   
    54    24    65 1   
    55    25    26 1   
    56    25    27 1   
    57    25    41 1   
    58    25    66 1   
    59    26    67 1   
    60    26    68 1   
    61    27    40 1   
    62    27    69 1   
    63    27    70 1   
    64    28    42 ar  
    65    28    44 ar  
    66    28    48 1   
    67    29    30 1   
    68    29    48 1   
    69    29    71 1   
    70    29    72 1   
    71    30    33 1   
    72    30    36 1   
    73    30    43 1   
    74    31    32 1   
    75    31    43 1   
    76    31    73 1   
    77    31    74 1   
    78    32    33 1   
    79    32    75 1   
    80    32    76 1   
    81    33    77 1   
    82    33    78 1   
    83    34    35 1   
    84    34    43 1   
    85    34    79 1   
    86    34    80 1   
    87    35    36 1   
    88    35    81 1   
    89    35    82 1   
    90    36    83 1   
    91    36    84 1   
@<TRIPOS>SUBSTRUCTURE
     1 Y63         1 TEMP              0 ****  ****    0 ROOT
