@<TRIPOS>MOLECULE
Y63
   84    91     1     0     0
SMALL
No Charge or Current Charge


@<TRIPOS>ATOM
      1 C10          3.3260    16.1560    37.8170 cp         1 Y63      -0.111500
      2 C13          4.7740    12.7560    36.4770 c1         1 Y63      -0.223000
      3 C15          7.4640    15.2070    37.8580 ca         1 Y63      -0.266000
      4 C17         12.2780    13.5910    36.8850 c5         1 Y63      -0.083400
      5 C20         11.0640    15.8860    37.1590 c6         1 Y63       0.191800
      6 C21         12.2440    15.1000    36.4940 c5         1 Y63       0.083200
      7 C24         13.4960    16.8550    34.3670 c3         1 Y63      -0.126400
      8 C01          3.7140    13.3130    36.6880 cg         1 Y63      -0.123000
      9 C02          2.4380    13.9410    36.9170 ca         1 Y63       0.053000
     10 C03          1.3200    13.1540    36.5740 ca         1 Y63      -0.093000
     11 C04          0.0190    13.6500    36.7020 ca         1 Y63      -0.112000
     12 C05         -0.1800    14.9520    37.1660 ca         1 Y63      -0.095000
     13 C06          0.9170    15.7600    37.5170 ca         1 Y63      -0.042000
     14 C07          0.6470    17.0660    37.9640 ca         1 Y63      -0.098000
     15 C08          1.6910    17.9210    38.3230 ca         1 Y63      -0.107000
     16 C09          3.0110    17.4680    38.2510 ca         1 Y63      -0.079000
     17 C11          4.7720    15.7840    37.8540 cp         1 Y63       0.371500
     18 C12          5.3040    14.9840    38.8990 ca         1 Y63       0.131000
     19 C14          6.6780    14.6790    38.9020 ca         1 Y63       0.081000
     20 C16          6.8710    16.0330    36.8870 ca         1 Y63       0.391900
     21 C18          8.8320    14.8990    37.8490 ca         1 Y63       0.466900
     22 C19         15.1580    18.6200    33.6130 c          1 Y63       0.717000
     23 C23         12.3010    15.9190    34.0870 c          1 Y63       0.602100
     24 C25         13.9560    17.7630    33.1890 c3         1 Y63      -0.205400
     25 C30         10.8300    14.0470    34.9260 c5         1 Y63       0.083200
     26 C31         11.2950    12.8980    35.8770 c5         1 Y63      -0.083400
     27 C34          9.5500    14.7790    35.4440 c6         1 Y63       0.191800
     28 C36          8.5690    13.6720    39.7750 ca         1 Y63       0.426300
     29 C38         10.5010    12.4930    40.7370 c3         1 Y63       0.200600
     30 C39         10.8290    11.5880    41.9690 c5         1 Y63       0.170200
     31 C41          9.5690    11.4930    44.0230 c5         1 Y63       0.161300
     32 C42          9.8050    10.0320    43.5580 c5         1 Y63      -0.099900
     33 C43          9.9780    10.2640    42.0350 c5         1 Y63      -0.087900
     34 C44         11.9180    12.1600    44.0670 c5         1 Y63       0.161300
     35 C45         12.9510    12.2380    42.9250 c5         1 Y63      -0.099900
     36 C46         12.3430    11.1590    41.9990 c5         1 Y63      -0.087900
     37 C48          2.2560    15.2740    37.4190 ca         1 Y63       0.014000
     38 F13          4.4970    14.5050    39.8800 f          1 Y63      -0.149000
     39 N17          5.5530    16.3280    36.8910 nb         1 Y63      -0.666000
     40 N19          9.7030    15.3320    36.8330 nh         1 Y63      -0.764300
     41 N22         11.9900    14.9400    35.0530 n          1 Y63      -0.421800
     42 N35          9.3800    14.1400    38.8060 nb         1 Y63      -0.374000
     43 N40         10.6340    12.2530    43.3080 n3         1 Y63      -0.704600
     44 N47          7.2450    13.9110    39.8560 nb         1 Y63      -0.233000
     45 O01         14.9380    19.7020    34.1350 o          1 Y63      -0.738500
     46 O03         16.2780    18.1550    33.4630 o          1 Y63      -0.738500
     47 O29         11.6710    15.9760    33.0370 o          1 Y63      -0.609100
     48 O37          9.1060    12.8790    40.7620 os         1 Y63      -0.425300
     49 H1           5.7050    12.2590    36.2890 ha         1 Y63       0.257000
     50 H2          13.2900    13.1870    36.7650 hc         1 Y63       0.049200
     51 H3          11.9980    13.4240    37.9310 hc         1 Y63       0.049200
     52 H4          11.2260    15.9080    38.2470 h1         1 Y63       0.072700
     53 H5          11.1120    16.9340    36.8290 h1         1 Y63       0.072700
     54 H6          13.1950    15.5950    36.7300 h1         1 Y63       0.099200
     55 H7          13.2490    17.4510    35.2520 hc         1 Y63       0.060200
     56 H8          14.3200    16.2400    34.7490 hc         1 Y63       0.060200
     57 H9           1.4610    12.1430    36.1960 ha         1 Y63       0.118000
     58 H10         -0.8330    13.0300    36.4310 ha         1 Y63       0.112000
     59 H11         -1.1940    15.3360    37.2520 ha         1 Y63       0.110000
     60 H12         -0.3780    17.4230    38.0300 ha         1 Y63       0.109000
     61 H13          1.4770    18.9320    38.6660 ha         1 Y63       0.114000
     62 H14          3.8130    18.1400    38.5500 ha         1 Y63       0.122000
     63 H15          7.4530    16.4870    36.0870 h4         1 Y63       0.029100
     64 H16         14.2410    17.0820    32.3780 hc         1 Y63       0.035700
     65 H17         13.0980    18.4040    32.9500 hc         1 Y63       0.035700
     66 H18         10.6660    13.6940    33.8980 h1         1 Y63       0.099200
     67 H19         11.8150    12.1150    35.3140 hc         1 Y63       0.049200
     68 H20         10.4510    12.4140    36.3820 hc         1 Y63       0.049200
     69 H21          9.3010    15.5930    34.7490 h1         1 Y63       0.072700
     70 H22          8.7070    14.0720    35.4080 h1         1 Y63       0.072700
     71 H24         11.1470    13.3810    40.7660 h1         1 Y63       0.052700
     72 H25         10.7280    11.9360    39.8180 h1         1 Y63       0.052700
     73 H26          8.5740    11.8380    43.7060 h1         1 Y63       0.046450
     74 H27          9.6230    11.6030    45.1160 h1         1 Y63       0.046450
     75 H28         10.6900     9.5760    44.0140 hc         1 Y63       0.048700
     76 H29          8.9520     9.3830    43.7860 hc         1 Y63       0.048700
     77 H30          8.9980    10.3980    41.5630 hc         1 Y63       0.053450
     78 H31         10.4490     9.4150    41.5260 hc         1 Y63       0.053450
     79 H32         12.0290    11.2180    44.6230 h1         1 Y63       0.046450
     80 H33         12.0310    12.9830    44.7850 h1         1 Y63       0.046450
     81 H34         12.9780    13.2290    42.4580 hc         1 Y63       0.048700
     82 H35         13.9650    11.9900    43.2580 hc         1 Y63       0.048700
     83 H36         12.5020    10.1570    42.4170 hc         1 Y63       0.053450
     84 H37         12.8010    11.1600    41.0030 hc         1 Y63       0.053450
@<TRIPOS>BOND
     1     1    16 ar  
     2     1    17 1   
     3     1    37 ar  
     4     2     8 3   
     5     2    49 1   
     6     3    19 ar  
     7     3    20 ar  
     8     3    21 ar  
     9     4     6 1   
    10     4    26 1   
    11     4    50 1   
    12     4    51 1   
    13     5     6 1   
    14     5    40 1   
    15     5    52 1   
    16     5    53 1   
    17     6    41 1   
    18     6    54 1   
    19     7    23 1   
    20     7    24 1   
    21     7    55 1   
    22     7    56 1   
    23     8     9 1   
    24     9    10 ar  
    25     9    37 ar  
    26    10    11 ar  
    27    10    57 1   
    28    11    12 ar  
    29    11    58 1   
    30    12    13 ar  
    31    12    59 1   
    32    13    14 ar  
    33    13    37 ar  
    34    14    15 ar  
    35    14    60 1   
    36    15    16 ar  
    37    15    61 1   
    38    16    62 1   
    39    17    18 ar  
    40    17    39 ar  
    41    18    19 ar  
    42    18    38 1   
    43    19    44 ar  
    44    20    39 ar  
    45    20    63 1   
    46    21    40 1   
    47    21    42 ar  
    48    22    24 1   
    49    22    45 1   
    50    22    46 1   
    51    23    41 1   
    52    23    47 2   
    53    24    64 1   
    54    24    65 1   
    55    25    26 1   
    56    25    27 1   
    57    25    41 1   
    58    25    66 1   
    59    26    67 1   
    60    26    68 1   
    61    27    40 1   
    62    27    69 1   
    63    27    70 1   
    64    28    42 ar  
    65    28    44 ar  
    66    28    48 1   
    67    29    30 1   
    68    29    48 1   
    69    29    71 1   
    70    29    72 1   
    71    30    33 1   
    72    30    36 1   
    73    30    43 1   
    74    31    32 1   
    75    31    43 1   
    76    31    73 1   
    77    31    74 1   
    78    32    33 1   
    79    32    75 1   
    80    32    76 1   
    81    33    77 1   
    82    33    78 1   
    83    34    35 1   
    84    34    43 1   
    85    34    79 1   
    86    34    80 1   
    87    35    36 1   
    88    35    81 1   
    89    35    82 1   
    90    36    83 1   
    91    36    84 1   
@<TRIPOS>SUBSTRUCTURE
     1 Y63         1 TEMP              0 ****  ****    0 ROOT
