@<TRIPOS>MOLECULE
Y67
   54    58     1     0     0
SMALL
bcc


@<TRIPOS>ATOM
      1 C02        -23.1190   -41.0240     2.8580 c          1 Y67       0.660100
      2 C03        -22.4820   -42.1200     2.0010 c3         1 Y67      -0.026700
      3 C05        -20.8300   -40.8070     0.6440 ca         1 Y67      -0.063200
      4 C06        -21.5590   -40.0020    -0.2330 ca         1 Y67      -0.125000
      5 C07        -20.8170   -39.1830    -1.0550 ca         1 Y67      -0.095000
      6 C08        -19.4060   -39.1590    -1.0140 ca         1 Y67      -0.157000
      7 C09        -18.6960   -39.9570    -0.1470 ca         1 Y67      -0.046000
      8 C10        -19.4350   -40.7940     0.6970 ca         1 Y67       0.014400
      9 N12        -20.0820   -42.2170     2.1620 nc         1 Y67      -0.156400
     10 C14        -25.1800   -40.1960     3.8920 c3         1 Y67       0.148300
     11 C15        -25.7160   -40.7630     5.1810 ca         1 Y67      -0.100300
     12 C16        -27.0800   -40.9480     5.3610 ca         1 Y67      -0.113000
     13 C17        -27.5660   -41.4880     6.5450 ca         1 Y67      -0.123000
     14 C18        -26.6970   -41.8550     7.5590 ca         1 Y67      -0.116000
     15 C19        -25.3350   -41.6670     7.3690 ca         1 Y67       0.023400
     16 C21        -24.8350   -41.1280     6.1960 ca         1 Y67      -0.104000
     17 C22        -25.1620   -42.3430     2.7200 ca         1 Y67       0.024600
     18 C23        -26.0440   -42.2520     1.6490 ca         1 Y67      -0.131500
     19 C24        -26.7830   -43.3560     1.2600 ca         1 Y67      -0.102500
     20 C25        -26.6630   -44.5710     1.9390 ca         1 Y67      -0.020800
     21 C26        -27.4780   -45.7440     1.5740 cc         1 Y67      -0.171400
     22 C27        -28.1210   -46.4810     2.5300 cd         1 Y67      -0.024000
     23 C28        -28.8990   -47.6150     2.2120 cd         1 Y67      -0.249000
     24 C29        -28.9980   -47.9660     0.9060 cc         1 Y67       0.025600
     25 C31        -27.5780   -46.1300     0.1790 c          1 Y67       0.699700
     26 C33        -25.7740   -44.6460     3.0110 ca         1 Y67      -0.102500
     27 C34        -25.0380   -43.5410     3.4090 ca         1 Y67      -0.131500
     28 O01        -22.4630   -40.0730     3.2350 o          1 Y67      -0.566100
     29 N04        -21.1720   -41.7270     1.5760 na         1 Y67       0.103900
     30 N11        -19.0400   -41.6850     1.6530 nd         1 Y67      -0.217400
     31 N13        -24.4320   -41.1940     3.1340 n          1 Y67      -0.404000
     32 CL20       -24.2350   -42.1170     8.6320 cl         1 Y67      -0.108400
     33 N30        -28.3600   -47.2470    -0.0420 ns         1 Y67      -0.429100
     34 O32        -27.0300   -45.5670    -0.7640 o          1 Y67      -0.631500
     35 H1         -23.0940   -42.3490     1.1260 h1         1 Y67       0.095200
     36 H2         -22.3860   -43.0440     2.5720 h1         1 Y67       0.095200
     37 H3         -22.6400   -40.0150    -0.2680 ha         1 Y67       0.140000
     38 H4         -21.3290   -38.5350    -1.7550 ha         1 Y67       0.132000
     39 H5         -18.8770   -38.4950    -1.6840 ha         1 Y67       0.134000
     40 H6         -17.6150   -39.9400    -0.1140 ha         1 Y67       0.151000
     41 H7         -24.5200   -39.3530     4.0870 h1         1 Y67       0.070700
     42 H8         -26.0050   -39.8320     3.2760 h1         1 Y67       0.070700
     43 H9         -27.7690   -40.6700     4.5730 ha         1 Y67       0.135000
     44 H10        -28.6310   -41.6300     6.6790 ha         1 Y67       0.136000
     45 H11        -27.0710   -42.2790     8.4810 ha         1 Y67       0.147000
     46 H12        -23.7680   -40.9910     6.0700 ha         1 Y67       0.158000
     47 H13        -26.1490   -41.3140     1.1190 ha         1 Y67       0.143500
     48 H14        -27.4700   -43.2610     0.4320 ha         1 Y67       0.143500
     49 H16        -28.0440   -46.1780     3.5680 ha         1 Y67       0.140000
     50 H17        -29.4080   -48.1830     2.9760 ha         1 Y67       0.155000
     51 H18        -29.5720   -48.8110     0.5550 h4         1 Y67       0.153000
     52 H19        -25.6510   -45.5810     3.5430 ha         1 Y67       0.143500
     53 H20        -24.3610   -43.6130     4.2510 ha         1 Y67       0.143500
     54 H15        -28.4490   -47.5400    -1.0070 hn         1 Y67       0.329500
@<TRIPOS>BOND
     1     1     2 1   
     2     1    28 2   
     3     1    31 1   
     4     2    29 1   
     5     2    35 1   
     6     2    36 1   
     7     3     4 ar  
     8     3     8 ar  
     9     3    29 1   
    10     4     5 ar  
    11     4    37 1   
    12     5     6 ar  
    13     5    38 1   
    14     6     7 ar  
    15     6    39 1   
    16     7     8 ar  
    17     7    40 1   
    18     8    30 1   
    19     9    29 1   
    20     9    30 2   
    21    10    11 1   
    22    10    31 1   
    23    10    41 1   
    24    10    42 1   
    25    11    12 ar  
    26    11    16 ar  
    27    12    13 ar  
    28    12    43 1   
    29    13    14 ar  
    30    13    44 1   
    31    14    15 ar  
    32    14    45 1   
    33    15    16 ar  
    34    15    32 1   
    35    16    46 1   
    36    17    18 ar  
    37    17    27 ar  
    38    17    31 1   
    39    18    19 ar  
    40    18    47 1   
    41    19    20 ar  
    42    19    48 1   
    43    20    21 1   
    44    20    26 ar  
    45    21    22 2   
    46    21    25 1   
    47    22    23 1   
    48    22    49 1   
    49    23    24 2   
    50    23    50 1   
    51    24    33 1   
    52    24    51 1   
    53    25    33 1   
    54    25    34 2   
    55    26    27 ar  
    56    26    52 1   
    57    27    53 1   
    58    33    54 1   
@<TRIPOS>SUBSTRUCTURE
     1 Y67         1 TEMP              0 ****  ****    0 ROOT
