@<TRIPOS>MOLECULE
Y67
   54    58     1     0     0
SMALL
No Charge or Current Charge


@<TRIPOS>ATOM
      1 C02        -23.0350   -41.5290     3.5110 c          1 Y67       0.593100
      2 C03        -22.2830   -42.5980     2.6990 c3         1 Y67       0.002600
      3 C05        -21.0350   -41.2280     0.9910 ca         1 Y67      -0.063200
      4 C06        -22.0640   -40.6230     0.2520 ca         1 Y67      -0.107000
      5 C07        -21.6840   -39.7780    -0.8120 ca         1 Y67      -0.077000
      6 C08        -20.3130   -39.5660    -1.1010 ca         1 Y67      -0.139000
      7 C09        -19.3120   -40.1990    -0.3290 ca         1 Y67      -0.028000
      8 C10        -19.7190   -41.0330     0.7220 ca         1 Y67       0.014400
      9 N12        -19.7750   -42.4030     2.4290 nc         1 Y67      -0.156400
     10 C14        -25.1510   -40.2830     3.9380 c3         1 Y67       0.148300
     11 C15        -25.5280   -40.4120     5.4090 ca         1 Y67      -0.100300
     12 C16        -26.6390   -41.1920     5.7870 ca         1 Y67      -0.095000
     13 C17        -26.9880   -41.3210     7.1430 ca         1 Y67      -0.105000
     14 C18        -26.2260   -40.6710     8.1290 ca         1 Y67      -0.098000
     15 C19        -25.1160   -39.8950     7.7570 ca         1 Y67       0.115000
     16 C21        -24.7670   -39.7650     6.4030 ca         1 Y67      -0.086000
     17 C22        -25.2690   -42.5490     2.8910 ca         1 Y67      -0.068000
     18 C23        -26.1410   -42.2920     1.8140 ca         1 Y67      -0.113500
     19 C24        -26.8350   -43.3430     1.1880 ca         1 Y67      -0.084500
     20 C25        -26.6370   -44.6740     1.5980 ca         1 Y67      -0.020800
     21 C26        -27.3610   -45.7660     0.9440 cc         1 Y67      -0.171400
     22 C27        -28.0690   -46.6010     1.7950 cd         1 Y67      -0.074000
     23 C28        -28.8140   -47.6990     1.2310 cd         1 Y67      -0.299000
     24 C29        -28.8100   -47.8960    -0.1350 cc         1 Y67      -0.024400
     25 C31        -27.3500   -45.9650    -0.5270 c          1 Y67       0.557200
     26 C33        -25.7150   -44.9400     2.6280 ca         1 Y67      -0.084500
     27 C34        -25.0200   -43.8890     3.2510 ca         1 Y67      -0.113500
     28 O01        -22.4170   -40.7000     4.1720 o          1 Y67      -0.566100
     29 N04        -21.0700   -42.0760     2.0570 na         1 Y67       0.074600
     30 N11        -18.9380   -41.7590     1.6120 nd         1 Y67      -0.217400
     31 N13        -24.4530   -41.4840     3.4180 n          1 Y67      -0.244400
     32 Cl20       -24.1590   -39.0850     8.9910 cl         1 Y67      -0.200000
     33 N30        -28.0930   -47.0370    -0.9510 ns         1 Y67      -0.362100
     34 O32        -26.7420   -45.2630    -1.3210 o          1 Y67      -0.556000
     35 H1         -22.9360   -42.9830     1.9100 h1         1 Y67       0.095200
     36 H2         -22.0240   -43.4220     3.3720 h1         1 Y67       0.095200
     37 H3         -23.1120   -40.7950     0.4840 ha         1 Y67       0.122000
     38 H4         -22.4470   -39.2870    -1.4130 ha         1 Y67       0.114000
     39 H5         -20.0290   -38.9130    -1.9230 ha         1 Y67       0.116000
     40 H6         -18.2570   -40.0440    -0.5420 ha         1 Y67       0.133000
     41 H7         -24.5230   -39.3950     3.7900 h1         1 Y67       0.070700
     42 H8         -26.0670   -40.1120     3.3600 h1         1 Y67       0.070700
     43 H9         -27.2310   -41.7010     5.0290 ha         1 Y67       0.117000
     44 H10        -27.8470   -41.9250     7.4290 ha         1 Y67       0.118000
     45 H11        -26.4920   -40.7700     9.1790 ha         1 Y67       0.129000
     46 H12        -23.9020   -39.1640     6.1290 ha         1 Y67       0.140000
     47 H13        -26.2840   -41.2780     1.4500 ha         1 Y67       0.125500
     48 H14        -27.5220   -43.1210     0.3750 ha         1 Y67       0.125500
     49 H16        -28.0740   -46.4320     2.8710 ha         1 Y67       0.190000
     50 H17        -29.3790   -48.3690     1.8760 ha         1 Y67       0.205000
     51 H18        -29.3320   -48.6850    -0.6730 h4         1 Y67       0.203000
     52 H19        -25.5260   -45.9650     2.9380 ha         1 Y67       0.125500
     53 H20        -24.3100   -44.1220     4.0410 ha         1 Y67       0.125500
     54 H15        -28.0920   -47.1840    -1.9540 hn         1 Y67       0.329500
@<TRIPOS>BOND
     1     1     2 1   
     2     1    28 2   
     3     1    31 1   
     4     2    29 1   
     5     2    35 1   
     6     2    36 1   
     7     3     4 ar  
     8     3     8 ar  
     9     3    29 1   
    10     4     5 ar  
    11     4    37 1   
    12     5     6 ar  
    13     5    38 1   
    14     6     7 ar  
    15     6    39 1   
    16     7     8 ar  
    17     7    40 1   
    18     8    30 1   
    19     9    29 1   
    20     9    30 2   
    21    10    11 1   
    22    10    31 1   
    23    10    41 1   
    24    10    42 1   
    25    11    12 ar  
    26    11    16 ar  
    27    12    13 ar  
    28    12    43 1   
    29    13    14 ar  
    30    13    44 1   
    31    14    15 ar  
    32    14    45 1   
    33    15    16 ar  
    34    15    32 1   
    35    16    46 1   
    36    17    18 ar  
    37    17    27 ar  
    38    17    31 1   
    39    18    19 ar  
    40    18    47 1   
    41    19    20 ar  
    42    19    48 1   
    43    20    21 1   
    44    20    26 ar  
    45    21    22 2   
    46    21    25 1   
    47    22    23 1   
    48    22    49 1   
    49    23    24 2   
    50    23    50 1   
    51    24    33 1   
    52    24    51 1   
    53    25    33 1   
    54    25    34 2   
    55    26    27 ar  
    56    26    52 1   
    57    27    53 1   
    58    33    54 1   
@<TRIPOS>SUBSTRUCTURE
     1 Y67         1 TEMP              0 ****  ****    0 ROOT
