@<TRIPOS>MOLECULE
Y69
   55    54     1     0     0
SMALL
No Charge or Current Charge


@<TRIPOS>ATOM
      1 OAB         11.0800    -1.6490     0.6540 o          1 Y69      -0.514100
      2 CAC         10.6990    -0.7250    -0.0560 c          1 Y69       0.573900
      3 CAE          9.3550    -0.7320    -0.7900 c3         1 Y69      -0.203400
      4 CAF          8.2020    -0.2610     0.1280 c3         1 Y69      -0.067400
      5 CAG          6.8340    -0.2370    -0.5880 c3         1 Y69      -0.074400
      6 CAH          5.6810     0.2310     0.3270 c3         1 Y69      -0.075400
      7 CAI          4.3130     0.2560    -0.3900 c3         1 Y69      -0.073400
      8 CAJ          3.1600     0.7240     0.5250 c3         1 Y69      -0.075400
      9 CAK          1.7920     0.7480    -0.1910 c3         1 Y69      -0.073400
     10 CAL          0.6390     1.2170     0.7240 c3         1 Y69      -0.074400
     11 CAM         -0.7290     1.2420     0.0080 c3         1 Y69      -0.078400
     12 CAN         -1.8770     1.7090     0.9230 c3         1 Y69       0.162600
     13 OAT         -3.0870     1.6900     0.1520 os         1 Y69      -0.450000
     14 CAP         -4.2630     2.1040     0.8760 c3         1 Y69       0.163600
     15 CAR         -5.4910     2.0280    -0.0630 c3         1 Y69       0.161600
     16 OAU         -5.8220     0.6440    -0.2950 os         1 Y69      -0.436000
     17 CAQ         -6.9490     0.4380    -1.1700 c3         1 Y69       0.161600
     18 CAO         -7.2000    -1.0810    -1.3230 c3         1 Y69       0.162600
     19 OAS         -7.7490    -1.5960    -0.0930 os         1 Y69      -0.450000
     20 CAD         -8.0180    -3.0060    -0.1070 c3         1 Y69       0.161600
     21 CAA         -8.5910    -3.3860     1.2670 c3         1 Y69      -0.091100
     22 H1          11.3150     0.1920    -0.1890 h4         1 Y69      -0.021800
     23 H2           9.4180    -0.0300    -1.6300 hc         1 Y69       0.067200
     24 H3           9.1410    -1.7460    -1.1460 hc         1 Y69       0.067200
     25 H4           8.1400    -0.9250     1.0000 hc         1 Y69       0.042700
     26 H5           8.4280     0.7440     0.5070 hc         1 Y69       0.042700
     27 H6           6.8950     0.4280    -1.4590 hc         1 Y69       0.040700
     28 H7           6.6080    -1.2420    -0.9670 hc         1 Y69       0.040700
     29 H8           5.6200    -0.4330     1.1980 hc         1 Y69       0.038200
     30 H9           5.9070     1.2360     0.7050 hc         1 Y69       0.038200
     31 H10          4.3740     0.9200    -1.2610 hc         1 Y69       0.038700
     32 H11          4.0870    -0.7490    -0.7680 hc         1 Y69       0.038700
     33 H12          3.0990     0.0590     1.3960 hc         1 Y69       0.037200
     34 H13          3.3860     1.7290     0.9040 hc         1 Y69       0.037200
     35 H14          1.8530     1.4130    -1.0620 hc         1 Y69       0.039700
     36 H15          1.5660    -0.2560    -0.5700 hc         1 Y69       0.039700
     37 H16          0.5770     0.5520     1.5950 hc         1 Y69       0.037200
     38 H17          0.8650     2.2210     1.1030 hc         1 Y69       0.037200
     39 H18         -0.6710     1.9080    -0.8610 hc         1 Y69       0.052700
     40 H19         -0.9590     0.2370    -0.3690 hc         1 Y69       0.052700
     41 H20         -1.9570     1.0350     1.7870 h1         1 Y69       0.018200
     42 H21         -1.6670     2.7230     1.2900 h1         1 Y69       0.018200
     43 H22         -4.4320     1.4650     1.7530 h1         1 Y69       0.029700
     44 H23         -4.1490     3.1390     1.2250 h1         1 Y69       0.029700
     45 H24         -6.3340     2.5440     0.4140 h1         1 Y69       0.027700
     46 H25         -5.2650     2.5430    -1.0060 h1         1 Y69       0.027700
     47 H26         -7.8510     0.9210    -0.7720 h1         1 Y69       0.027700
     48 H27         -6.7430     0.8640    -2.1600 h1         1 Y69       0.027700
     49 H28         -7.9060    -1.2410    -2.1490 h1         1 Y69       0.028200
     50 H29         -6.2580    -1.5850    -1.5770 h1         1 Y69       0.028200
     51 H30         -8.7470    -3.2550    -0.8900 h1         1 Y69       0.017200
     52 H31         -7.0980    -3.5770    -0.2910 h1         1 Y69       0.017200
     53 H32         -7.8720    -3.1570     2.0630 hc         1 Y69       0.042367
     54 H33         -9.5190    -2.8370     1.4640 hc         1 Y69       0.042367
     55 H34         -8.8120    -4.4590     1.3020 hc         1 Y69       0.042367
@<TRIPOS>BOND
     1     1     2 2   
     2     2     3 1   
     3     2    22 1   
     4     3     4 1   
     5     3    23 1   
     6     3    24 1   
     7     4     5 1   
     8     4    25 1   
     9     4    26 1   
    10     5     6 1   
    11     5    27 1   
    12     5    28 1   
    13     6     7 1   
    14     6    29 1   
    15     6    30 1   
    16     7     8 1   
    17     7    31 1   
    18     7    32 1   
    19     8     9 1   
    20     8    33 1   
    21     8    34 1   
    22     9    10 1   
    23     9    35 1   
    24     9    36 1   
    25    10    11 1   
    26    10    37 1   
    27    10    38 1   
    28    11    12 1   
    29    11    39 1   
    30    11    40 1   
    31    12    13 1   
    32    12    41 1   
    33    12    42 1   
    34    13    14 1   
    35    14    15 1   
    36    14    43 1   
    37    14    44 1   
    38    15    16 1   
    39    15    45 1   
    40    15    46 1   
    41    16    17 1   
    42    17    18 1   
    43    17    47 1   
    44    17    48 1   
    45    18    19 1   
    46    18    49 1   
    47    18    50 1   
    48    19    20 1   
    49    20    21 1   
    50    20    51 1   
    51    20    52 1   
    52    21    53 1   
    53    21    54 1   
    54    21    55 1   
@<TRIPOS>SUBSTRUCTURE
     1 Y69         1 TEMP              0 ****  ****    0 ROOT
