@<TRIPOS>MOLECULE
Y69
   55    54     1     0     0
SMALL
bcc


@<TRIPOS>ATOM
      1 OAB         11.4600    -1.2920     0.2310 o          1 Y69      -0.514100
      2 CAC         10.6140    -0.4310     0.2480 c          1 Y69       0.573900
      3 CAE          9.3700    -0.4200    -0.5810 c3         1 Y69      -0.203400
      4 CAF          8.1230    -0.2340     0.2850 c3         1 Y69      -0.067400
      5 CAG          6.8510    -0.1090    -0.5430 c3         1 Y69      -0.074400
      6 CAH          5.6090     0.0840     0.3170 c3         1 Y69      -0.075400
      7 CAI          4.3250     0.2210    -0.4930 c3         1 Y69      -0.073400
      8 CAJ          3.0990     0.4520     0.3790 c3         1 Y69      -0.075400
      9 CAK          1.8030     0.5960    -0.4090 c3         1 Y69      -0.073400
     10 CAL          0.6080     0.9120     0.4820 c3         1 Y69      -0.074400
     11 CAM         -0.7040     1.0410    -0.2820 c3         1 Y69      -0.078400
     12 CAN         -1.8340     1.4660     0.6350 c3         1 Y69       0.139400
     13 OAT         -3.0420     1.5250    -0.0860 os         1 Y69      -0.403600
     14 CAP         -4.1090     2.0220     0.6820 c3         1 Y69       0.140400
     15 CAR         -5.3850     1.9650    -0.1180 c3         1 Y69       0.138400
     16 OAU         -5.7580     0.6250    -0.3150 os         1 Y69      -0.389600
     17 CAQ         -6.9320     0.4900    -1.0750 c3         1 Y69       0.138400
     18 CAO         -7.3240    -0.9630    -1.1520 c3         1 Y69       0.139400
     19 OAS         -7.6960    -1.4230     0.1220 os         1 Y69      -0.403600
     20 CAD         -8.1000    -2.7730     0.1190 c3         1 Y69       0.138400
     21 CAA         -8.4930    -3.1790     1.5210 c3         1 Y69      -0.091100
     22 H1          10.7180     0.4440     0.9170 h4         1 Y69      -0.021800
     23 H2           9.4540     0.4300    -1.2690 hc         1 Y69       0.067200
     24 H3           9.3080    -1.3290    -1.1810 hc         1 Y69       0.067200
     25 H4           8.0280    -1.0770     0.9760 hc         1 Y69       0.042700
     26 H5           8.2410     0.6610     0.9060 hc         1 Y69       0.042700
     27 H6           6.9520     0.7330    -1.2350 hc         1 Y69       0.040700
     28 H7           6.7310    -1.0020    -1.1650 hc         1 Y69       0.040700
     29 H8           5.5110    -0.7580     1.0120 hc         1 Y69       0.038200
     30 H9           5.7380     0.9760     0.9420 hc         1 Y69       0.038200
     31 H10          4.4300     1.0500    -1.2010 hc         1 Y69       0.038700
     32 H11          4.1800    -0.6790    -1.1010 hc         1 Y69       0.038700
     33 H12          2.9970    -0.3730     1.0930 hc         1 Y69       0.037200
     34 H13          3.2540     1.3540     0.9830 hc         1 Y69       0.037200
     35 H14          1.9170     1.3880    -1.1570 hc         1 Y69       0.039700
     36 H15          1.6120    -0.3260    -0.9700 hc         1 Y69       0.039700
     37 H16          0.5080     0.1340     1.2460 hc         1 Y69       0.037200
     38 H17          0.8070     1.8430     1.0230 hc         1 Y69       0.037200
     39 H18         -0.5940     1.7760    -1.0850 hc         1 Y69       0.052700
     40 H19         -0.9530     0.0860    -0.7550 hc         1 Y69       0.052700
     41 H20         -1.9230     0.7600     1.4740 h1         1 Y69       0.018200
     42 H21         -1.5990     2.4470     1.0740 h1         1 Y69       0.018200
     43 H22         -4.2290     1.4480     1.6120 h1         1 Y69       0.029700
     44 H23         -3.9300     3.0660     0.9750 h1         1 Y69       0.029700
     45 H24         -6.1610     2.5130     0.4340 h1         1 Y69       0.027700
     46 H25         -5.2510     2.4860    -1.0770 h1         1 Y69       0.027700
     47 H26         -7.7560     1.0730    -0.6370 h1         1 Y69       0.027700
     48 H27         -6.7870     0.8640    -2.0980 h1         1 Y69       0.027700
     49 H28         -8.1570    -1.0550    -1.8630 h1         1 Y69       0.028200
     50 H29         -6.4930    -1.5570    -1.5600 h1         1 Y69       0.028200
     51 H30         -8.9460    -2.9180    -0.5680 h1         1 Y69       0.017200
     52 H31         -7.2870    -3.4160    -0.2470 h1         1 Y69       0.017200
     53 H32         -7.6590    -3.0730     2.2140 hc         1 Y69       0.042367
     54 H33         -9.3260    -2.5800     1.8900 hc         1 Y69       0.042367
     55 H34         -8.8040    -4.2240     1.5290 hc         1 Y69       0.042367
@<TRIPOS>BOND
     1     1     2 2   
     2     2     3 1   
     3     2    22 1   
     4     3     4 1   
     5     3    23 1   
     6     3    24 1   
     7     4     5 1   
     8     4    25 1   
     9     4    26 1   
    10     5     6 1   
    11     5    27 1   
    12     5    28 1   
    13     6     7 1   
    14     6    29 1   
    15     6    30 1   
    16     7     8 1   
    17     7    31 1   
    18     7    32 1   
    19     8     9 1   
    20     8    33 1   
    21     8    34 1   
    22     9    10 1   
    23     9    35 1   
    24     9    36 1   
    25    10    11 1   
    26    10    37 1   
    27    10    38 1   
    28    11    12 1   
    29    11    39 1   
    30    11    40 1   
    31    12    13 1   
    32    12    41 1   
    33    12    42 1   
    34    13    14 1   
    35    14    15 1   
    36    14    43 1   
    37    14    44 1   
    38    15    16 1   
    39    15    45 1   
    40    15    46 1   
    41    16    17 1   
    42    17    18 1   
    43    17    47 1   
    44    17    48 1   
    45    18    19 1   
    46    18    49 1   
    47    18    50 1   
    48    19    20 1   
    49    20    21 1   
    50    20    51 1   
    51    20    52 1   
    52    21    53 1   
    53    21    54 1   
    54    21    55 1   
@<TRIPOS>SUBSTRUCTURE
     1 Y69         1 TEMP              0 ****  ****    0 ROOT
