@<TRIPOS>MOLECULE
Y6A
   48    52     1     0     0
SMALL
bcc


@<TRIPOS>ATOM
      1 C10        -19.6840    16.8090     1.4810 ca         1 Y6A       0.015400
      2 N11        -19.4330    16.0740     2.6050 nc         1 Y6A      -0.217400
      3 C15        -25.7840    17.6100     5.5770 cc         1 Y6A      -0.149300
      4 O01        -22.9350    17.8420     3.5900 o          1 Y6A      -0.569100
      5 C02        -23.5760    16.8630     3.2590 c          1 Y6A       0.658100
      6 C03        -22.8960    15.6830     2.5620 c3         1 Y6A      -0.026700
      7 N04        -21.5360    16.0050     2.2470 na         1 Y6A       0.104900
      8 C05        -21.0590    16.7800     1.2440 ca         1 Y6A      -0.065200
      9 C06        -21.6520    17.4390     0.1650 ca         1 Y6A      -0.127000
     10 C07        -20.7960    18.1290    -0.6630 ca         1 Y6A      -0.096000
     11 C08        -19.4020    18.1660    -0.4380 ca         1 Y6A      -0.157000
     12 C09        -18.8270    17.5130     0.6270 ca         1 Y6A      -0.046000
     13 N12        -20.5420    15.6180     3.0410 nd         1 Y6A      -0.156400
     14 N13        -24.9080    16.7420     3.4440 n          1 Y6A      -0.397000
     15 C14        -25.6520    17.8190     4.0970 c3         1 Y6A       0.175300
     16 C16        -24.8890    18.0680     6.4990 cd         1 Y6A      -0.086100
     17 S17        -25.3260    17.6180     8.0920 ss         1 Y6A      -0.078800
     18 C18        -26.7290    16.8030     7.5390 cd         1 Y6A      -0.126100
     19 C19        -26.8460    16.8790     6.1860 cc         1 Y6A      -0.139000
     20 C20        -25.6090    15.5370     3.1650 ca         1 Y6A       0.015600
     21 C21        -26.4180    15.4480     2.0380 ca         1 Y6A      -0.122500
     22 C22        -27.1220    14.2870     1.7740 ca         1 Y6A      -0.126000
     23 C23        -27.0400    13.1820     2.6270 ca         1 Y6A       0.032000
     24 C24        -27.7800    11.9550     2.3480 cc         1 Y6A      -0.232300
     25 C25        -28.6950    11.7210     1.3360 cd         1 Y6A      -0.118300
     26 N26        -29.1090    10.4570     1.4790 na         1 Y6A       0.001400
     27 N27        -28.5430     9.8310     2.5040 nd         1 Y6A      -0.516800
     28 C28        -27.7360    10.7240     3.0410 cc         1 Y6A       0.323200
     29 C29        -26.2270    13.2890     3.7570 ca         1 Y6A      -0.126000
     30 C30        -25.5260    14.4530     4.0280 ca         1 Y6A      -0.122500
     31 H1         -23.4240    15.4030     1.6490 h1         1 Y6A       0.091700
     32 H2         -22.8890    14.8050     3.2080 h1         1 Y6A       0.091700
     33 H3         -22.7190    17.4150    -0.0130 ha         1 Y6A       0.139000
     34 H4         -21.2000    18.6610    -1.5150 ha         1 Y6A       0.132000
     35 H5         -18.7780    18.7240    -1.1240 ha         1 Y6A       0.135000
     36 H6         -17.7600    17.5400     0.8010 ha         1 Y6A       0.151000
     37 H7         -25.1560    18.7620     3.8810 h1         1 Y6A       0.067200
     38 H8         -26.6390    17.8630     3.6350 h1         1 Y6A       0.067200
     39 H9         -23.9960    18.6470     6.3180 h4         1 Y6A       0.183000
     40 H10        -27.3930    16.3180     8.2380 h4         1 Y6A       0.168000
     41 H11        -27.6640    16.4370     5.6330 ha         1 Y6A       0.152000
     42 H12        -26.4910    16.2900     1.3610 ha         1 Y6A       0.143500
     43 H13        -27.7360    14.2460     0.8830 ha         1 Y6A       0.135000
     44 H14        -29.0730    12.3500     0.5460 h4         1 Y6A       0.174000
     45 H15        -29.7800     9.9730     0.9030 hn         1 Y6A       0.324700
     46 H16        -27.1430    10.4610     3.9040 h4         1 Y6A       0.040100
     47 H17        -26.1410    12.4610     4.4490 ha         1 Y6A       0.135000
     48 H18        -24.9110    14.5150     4.9180 ha         1 Y6A       0.143500
@<TRIPOS>BOND
     1     1     2 1   
     2     1     8 ar  
     3     1    12 ar  
     4     2    13 2   
     5     3    15 1   
     6     3    16 2   
     7     3    19 1   
     8     4     5 2   
     9     5     6 1   
    10     5    14 1   
    11     6     7 1   
    12     6    31 1   
    13     6    32 1   
    14     7     8 1   
    15     7    13 1   
    16     8     9 ar  
    17     9    10 ar  
    18     9    33 1   
    19    10    11 ar  
    20    10    34 1   
    21    11    12 ar  
    22    11    35 1   
    23    12    36 1   
    24    14    15 1   
    25    14    20 1   
    26    15    37 1   
    27    15    38 1   
    28    16    17 1   
    29    16    39 1   
    30    17    18 1   
    31    18    19 2   
    32    18    40 1   
    33    19    41 1   
    34    20    21 ar  
    35    20    30 ar  
    36    21    22 ar  
    37    21    42 1   
    38    22    23 ar  
    39    22    43 1   
    40    23    24 1   
    41    23    29 ar  
    42    24    25 2   
    43    24    28 1   
    44    25    26 1   
    45    25    44 1   
    46    26    27 1   
    47    26    45 1   
    48    27    28 2   
    49    28    46 1   
    50    29    30 ar  
    51    29    47 1   
    52    30    48 1   
@<TRIPOS>SUBSTRUCTURE
     1 Y6A         1 TEMP              0 ****  ****    0 ROOT
