@<TRIPOS>MOLECULE
Y6A
   48    52     1     0     0
SMALL
No Charge or Current Charge


@<TRIPOS>ATOM
      1 C10        -19.8450    16.6120     1.2680 ca         1 Y6A       0.015400
      2 N11        -19.1090    16.0370     2.3020 nc         1 Y6A      -0.217400
      3 C15        -25.7720    17.9830     5.5930 cc         1 Y6A      -0.149300
      4 O01        -22.6460    17.5500     4.4850 o          1 Y6A      -0.569100
      5 C02        -23.2560    16.6200     3.9630 c          1 Y6A       0.591100
      6 C03        -22.4920    15.4270     3.3630 c3         1 Y6A       0.002600
      7 N04        -21.2470    15.8240     2.6910 na         1 Y6A       0.075600
      8 C05        -21.1780    16.4800     1.5030 ca         1 Y6A      -0.065200
      9 C06        -22.1680    16.9590     0.6340 ca         1 Y6A      -0.109000
     10 C07        -21.7330    17.6100    -0.5390 ca         1 Y6A      -0.078000
     11 C08        -20.3480    17.7580    -0.8000 ca         1 Y6A      -0.139000
     12 C09        -19.3880    17.2560     0.1080 ca         1 Y6A      -0.028000
     13 N12        -19.9870    15.5460     3.1810 nd         1 Y6A      -0.156400
     14 N13        -24.6720    16.6470     3.8360 n          1 Y6A      -0.237400
     15 C14        -25.3760    17.9170     4.1380 c3         1 Y6A       0.175300
     16 C16        -25.1280    18.6870     6.5810 cd         1 Y6A      -0.213000
     17 S17        -25.9100    18.4940     8.1590 ss         1 Y6A       0.211000
     18 C18        -27.1250    17.4350     7.4290 cd         1 Y6A      -0.253000
     19 C19        -26.9010    17.2770     6.0870 cc         1 Y6A      -0.121000
     20 C20        -25.4780    15.5150     3.4540 ca         1 Y6A      -0.077000
     21 C21        -26.3150    15.6010     2.3250 ca         1 Y6A      -0.104500
     22 C22        -26.9960    14.4680     1.8460 ca         1 Y6A      -0.108000
     23 C23        -26.8210    13.2090     2.4580 ca         1 Y6A       0.032000
     24 C24        -27.5210    12.0080     1.9800 cc         1 Y6A      -0.167000
     25 C25        -28.3970    12.0170     0.9320 cd         1 Y6A      -0.151000
     26 N26        -28.8250    10.6860     0.8200 na         1 Y6A       0.001800
     27 N27        -28.2370     9.8510     1.7740 nd         1 Y6A      -0.516800
     28 C28        -27.4660    10.6830     2.4450 cc         1 Y6A       0.257900
     29 C29        -25.9310    13.1130     3.5470 ca         1 Y6A      -0.108000
     30 C30        -25.2500    14.2460     4.0230 ca         1 Y6A      -0.104500
     31 H1         -23.1220    14.9260     2.6210 h1         1 Y6A       0.091700
     32 H2         -22.2710    14.7190     4.1690 h1         1 Y6A       0.091700
     33 H3         -23.2280    16.8370     0.8480 ha         1 Y6A       0.121000
     34 H4         -22.4630    18.0000    -1.2460 ha         1 Y6A       0.114000
     35 H5         -20.0200    18.2610    -1.7070 ha         1 Y6A       0.117000
     36 H6         -18.3240    17.3640    -0.0850 ha         1 Y6A       0.133000
     37 H7         -24.7390    18.7740     3.8850 h1         1 Y6A       0.067200
     38 H8         -26.2790    17.9990     3.5220 h1         1 Y6A       0.067200
     39 H9         -24.2410    19.3020     6.4920 h4         1 Y6A       0.165000
     40 H10        -27.9120    17.0040     8.0360 h4         1 Y6A       0.150000
     41 H11        -27.5250    16.6630     5.4420 ha         1 Y6A       0.134000
     42 H12        -26.4400    16.5480     1.8040 ha         1 Y6A       0.125500
     43 H13        -27.6470    14.5820     0.9860 ha         1 Y6A       0.117000
     44 H14        -28.7480    12.8060     0.2770 h4         1 Y6A       0.156000
     45 H15        -29.4890    10.3250     0.1350 hn         1 Y6A       0.375000
     46 H16        -26.8780    10.2950     3.2660 h4         1 Y6A       0.040100
     47 H17        -25.7560    12.1560     4.0300 ha         1 Y6A       0.117000
     48 H18        -24.5680    14.1380     4.8640 ha         1 Y6A       0.125500
@<TRIPOS>BOND
     1     1     2 1   
     2     1     8 ar  
     3     1    12 ar  
     4     2    13 2   
     5     3    15 1   
     6     3    16 2   
     7     3    19 1   
     8     4     5 2   
     9     5     6 1   
    10     5    14 1   
    11     6     7 1   
    12     6    31 1   
    13     6    32 1   
    14     7     8 1   
    15     7    13 1   
    16     8     9 ar  
    17     9    10 ar  
    18     9    33 1   
    19    10    11 ar  
    20    10    34 1   
    21    11    12 ar  
    22    11    35 1   
    23    12    36 1   
    24    14    15 1   
    25    14    20 1   
    26    15    37 1   
    27    15    38 1   
    28    16    17 1   
    29    16    39 1   
    30    17    18 1   
    31    18    19 2   
    32    18    40 1   
    33    19    41 1   
    34    20    21 ar  
    35    20    30 ar  
    36    21    22 ar  
    37    21    42 1   
    38    22    23 ar  
    39    22    43 1   
    40    23    24 1   
    41    23    29 ar  
    42    24    25 2   
    43    24    28 1   
    44    25    26 1   
    45    25    44 1   
    46    26    27 1   
    47    26    45 1   
    48    27    28 2   
    49    28    46 1   
    50    29    30 ar  
    51    29    47 1   
    52    30    48 1   
@<TRIPOS>SUBSTRUCTURE
     1 Y6A         1 TEMP              0 ****  ****    0 ROOT
