@<TRIPOS>MOLECULE
Y6D
   50    54     1     0     0
SMALL
No Charge or Current Charge


@<TRIPOS>ATOM
      1 C10        -19.8320   -41.0070     0.6350 ca         1 Y6D       0.016400
      2 C14        -24.7200   -40.1360     4.6120 c3         1 Y6D       0.175300
      3 C21        -26.1310   -41.8770     2.4890 ca         1 Y6D      -0.110000
      4 C22        -26.9780   -42.8180     1.8790 ca         1 Y6D      -0.093000
      5 C30        -25.8150   -44.6070     3.0240 ca         1 Y6D      -0.093000
      6 C31        -24.9660   -43.6660     3.6300 ca         1 Y6D      -0.110000
      7 O01        -22.0170   -40.7340     4.4060 o          1 Y6D      -0.554100
      8 C02        -22.7830   -41.4710     3.7910 c          1 Y6D       0.587100
      9 C03        -22.2330   -42.5230     2.8120 c3         1 Y6D       0.002600
     10 N04        -21.0720   -42.0430     2.0510 na         1 Y6D       0.072600
     11 C05        -21.1210   -41.1210     1.0530 ca         1 Y6D      -0.065200
     12 C06        -22.1820   -40.3910     0.4980 ca         1 Y6D      -0.111000
     13 C07        -21.8700   -39.4970    -0.5470 ca         1 Y6D      -0.076000
     14 C08        -20.5320   -39.3650    -0.9960 ca         1 Y6D      -0.139000
     15 C09        -19.4970   -40.1250    -0.4030 ca         1 Y6D      -0.026000
     16 N11        -19.0060   -41.8550     1.3690 nc         1 Y6D      -0.215400
     17 N12        -19.7840   -42.4990     2.2440 nd         1 Y6D      -0.154400
     18 N13        -24.1930   -41.3310     3.9100 n          1 Y6D      -0.246400
     19 C15        -24.8840   -40.4030     6.0880 cc         1 Y6D      -0.127300
     20 C16        -24.0460   -39.9800     7.0910 cd         1 Y6D      -0.226000
     21 S17        -24.5920   -40.5130     8.6900 ss         1 Y6D       0.209000
     22 C18        -25.9800   -41.3210     7.9490 cd         1 Y6D      -0.242000
     23 C19        -25.9750   -41.1630     6.5880 cc         1 Y6D      -0.129000
     24 C20        -25.1510   -42.2860     3.4140 ca         1 Y6D      -0.061000
     25 C23        -26.8470   -44.2040     2.1420 cp         1 Y6D      -0.022000
     26 C24        -27.7500   -45.2080     1.4940 cp         1 Y6D      -0.095000
     27 C25        -28.2760   -45.0080     0.1940 ca         1 Y6D      -0.063000
     28 C26        -29.1190   -45.9850    -0.3610 ca         1 Y6D      -0.163000
     29 C27        -29.4210   -47.1350     0.3830 ca         1 Y6D       0.341900
     30 N28        -28.9340   -47.3530     1.6260 nb         1 Y6D      -0.663000
     31 C29        -28.1200   -46.4090     2.1580 ca         1 Y6D       0.349900
     32 H1         -24.0500   -39.2800     4.4600 h1         1 Y6D       0.068200
     33 H2         -25.6940   -39.8560     4.1940 h1         1 Y6D       0.068200
     34 H3         -26.2400   -40.8260     2.2320 ha         1 Y6D       0.126500
     35 H4         -27.7470   -42.4630     1.1970 ha         1 Y6D       0.123500
     36 H5         -25.6550   -45.6630     3.2290 ha         1 Y6D       0.123500
     37 H6         -24.1810   -44.0160     4.2970 ha         1 Y6D       0.126500
     38 H7         -23.0120   -42.7930     2.0910 h1         1 Y6D       0.090700
     39 H8         -21.9610   -43.4160     3.3840 h1         1 Y6D       0.090700
     40 H9         -23.2040   -40.5050     0.8530 ha         1 Y6D       0.120000
     41 H10        -22.6590   -38.9080    -1.0110 ha         1 Y6D       0.114000
     42 H11        -20.2990   -38.6740    -1.8020 ha         1 Y6D       0.118000
     43 H12        -18.4680   -40.0300    -0.7420 ha         1 Y6D       0.134000
     44 H13        -23.1400   -39.3940     6.9990 h4         1 Y6D       0.151000
     45 H14        -26.6960   -41.8540     8.5630 h4         1 Y6D       0.151000
     46 H15        -26.7340   -41.5810     5.9330 ha         1 Y6D       0.132000
     47 H16        -28.0250   -44.1200    -0.3820 ha         1 Y6D       0.120000
     48 H17        -29.5330   -45.8590    -1.3580 ha         1 Y6D       0.127000
     49 H18        -30.0720   -47.9070    -0.0260 h4         1 Y6D       0.022100
     50 H19        -27.7590   -46.6160     3.1650 h4         1 Y6D       0.022100
@<TRIPOS>BOND
     1     1    11 ar  
     2     1    15 ar  
     3     1    16 1   
     4     2    18 1   
     5     2    19 1   
     6     2    32 1   
     7     2    33 1   
     8     3     4 ar  
     9     3    24 ar  
    10     3    34 1   
    11     4    25 ar  
    12     4    35 1   
    13     5     6 ar  
    14     5    25 ar  
    15     5    36 1   
    16     6    24 ar  
    17     6    37 1   
    18     7     8 2   
    19     8     9 1   
    20     8    18 1   
    21     9    10 1   
    22     9    38 1   
    23     9    39 1   
    24    10    11 1   
    25    10    17 1   
    26    11    12 ar  
    27    12    13 ar  
    28    12    40 1   
    29    13    14 ar  
    30    13    41 1   
    31    14    15 ar  
    32    14    42 1   
    33    15    43 1   
    34    16    17 2   
    35    18    24 1   
    36    19    20 2   
    37    19    23 1   
    38    20    21 1   
    39    20    44 1   
    40    21    22 1   
    41    22    23 2   
    42    22    45 1   
    43    23    46 1   
    44    25    26 1   
    45    26    27 ar  
    46    26    31 ar  
    47    27    28 ar  
    48    27    47 1   
    49    28    29 ar  
    50    28    48 1   
    51    29    30 ar  
    52    29    49 1   
    53    30    31 ar  
    54    31    50 1   
@<TRIPOS>SUBSTRUCTURE
     1 Y6D         1 TEMP              0 ****  ****    0 ROOT
