@<TRIPOS>MOLECULE
Y6D
   50    54     1     0     0
SMALL
bcc


@<TRIPOS>ATOM
      1 C10        -19.7150   -40.7210     0.8950 ca         1 Y6D       0.016400
      2 C14        -25.1080   -40.3740     4.6460 c3         1 Y6D       0.175300
      3 C21        -26.2400   -42.0740     2.1800 ca         1 Y6D      -0.128000
      4 C22        -27.0470   -43.0830     1.6850 ca         1 Y6D      -0.111000
      5 C30        -26.0310   -44.6420     3.1970 ca         1 Y6D      -0.111000
      6 C31        -25.2270   -43.6320     3.7020 ca         1 Y6D      -0.128000
      7 O01        -22.5070   -40.2380     3.7340 o          1 Y6D      -0.554100
      8 C02        -23.2240   -41.1190     3.3040 c          1 Y6D       0.654100
      9 C03        -22.7090   -42.1080     2.2570 c3         1 Y6D      -0.026700
     10 N04        -21.4180   -41.7060     1.7850 na         1 Y6D       0.101900
     11 C05        -21.1110   -40.7470     0.8790 ca         1 Y6D      -0.065200
     12 C06        -21.8710   -39.9200     0.0500 ca         1 Y6D      -0.129000
     13 C07        -21.1590   -39.0680    -0.7640 ca         1 Y6D      -0.094000
     14 C08        -19.7480   -39.0310    -0.7610 ca         1 Y6D      -0.157000
     15 C09        -19.0070   -39.8500     0.0600 ca         1 Y6D      -0.044000
     16 N11        -19.2850   -41.6410     1.8090 nc         1 Y6D      -0.215400
     17 N12        -20.3080   -42.2020     2.3260 nd         1 Y6D      -0.154400
     18 N13        -24.5070   -41.2960     3.6970 n          1 Y6D      -0.406000
     19 C15        -24.9820   -40.8000     6.0810 cc         1 Y6D      -0.127300
     20 C16        -24.0940   -41.7090     6.5740 cd         1 Y6D      -0.099100
     21 S17        -24.2350   -41.8840     8.2740 ss         1 Y6D      -0.080800
     22 C18        -25.4960   -40.7280     8.3460 cd         1 Y6D      -0.115100
     23 C19        -25.7920   -40.2380     7.1130 cc         1 Y6D      -0.147000
     24 C20        -25.3230   -42.3460     3.1890 ca         1 Y6D       0.031600
     25 C23        -26.9530   -44.3830     2.1840 cp         1 Y6D      -0.022000
     26 C24        -27.8090   -45.4560     1.6460 cp         1 Y6D      -0.160300
     27 C25        -28.1080   -45.5490     0.2890 ca         1 Y6D      -0.081000
     28 C26        -28.9180   -46.5780    -0.1600 ca         1 Y6D      -0.246300
     29 C27        -29.4050   -47.4890     0.7650 ca         1 Y6D       0.407200
     30 N28        -29.1370   -47.4150     2.0640 nb         1 Y6D      -0.663000
     31 C29        -28.3630   -46.4250     2.4850 ca         1 Y6D       0.415200
     32 H1         -24.6590   -39.3880     4.5120 h1         1 Y6D       0.068200
     33 H2         -26.1630   -40.2680     4.3890 h1         1 Y6D       0.068200
     34 H3         -26.3200   -41.0700     1.7820 ha         1 Y6D       0.144500
     35 H4         -27.7670   -42.8500     0.9110 ha         1 Y6D       0.141500
     36 H5         -25.9200   -45.6450     3.5880 ha         1 Y6D       0.141500
     37 H6         -24.5130   -43.8500     4.4860 ha         1 Y6D       0.144500
     38 H7         -23.3930   -42.1880     1.4110 h1         1 Y6D       0.090700
     39 H8         -22.6160   -43.1060     2.6860 h1         1 Y6D       0.090700
     40 H9         -22.9530   -39.9430     0.0440 ha         1 Y6D       0.138000
     41 H10        -21.6960   -38.4030    -1.4280 ha         1 Y6D       0.132000
     42 H11        -19.2430   -38.3400    -1.4230 ha         1 Y6D       0.136000
     43 H12        -17.9260   -39.8240     0.0640 ha         1 Y6D       0.152000
     44 H13        -23.3580   -42.2860     6.0350 h4         1 Y6D       0.169000
     45 H14        -25.9580   -40.4770     9.2890 h4         1 Y6D       0.169000
     46 H15        -26.5640   -39.5010     6.9350 ha         1 Y6D       0.150000
     47 H16        -27.6970   -44.8350    -0.4150 ha         1 Y6D       0.138000
     48 H17        -29.1620   -46.6790    -1.2080 ha         1 Y6D       0.145000
     49 H18        -30.0370   -48.3100     0.4460 h4         1 Y6D       0.022100
     50 H19        -28.1810   -46.3820     3.5540 h4         1 Y6D       0.022100
@<TRIPOS>BOND
     1     1    11 ar  
     2     1    15 ar  
     3     1    16 1   
     4     2    18 1   
     5     2    19 1   
     6     2    32 1   
     7     2    33 1   
     8     3     4 ar  
     9     3    24 ar  
    10     3    34 1   
    11     4    25 ar  
    12     4    35 1   
    13     5     6 ar  
    14     5    25 ar  
    15     5    36 1   
    16     6    24 ar  
    17     6    37 1   
    18     7     8 2   
    19     8     9 1   
    20     8    18 1   
    21     9    10 1   
    22     9    38 1   
    23     9    39 1   
    24    10    11 1   
    25    10    17 1   
    26    11    12 ar  
    27    12    13 ar  
    28    12    40 1   
    29    13    14 ar  
    30    13    41 1   
    31    14    15 ar  
    32    14    42 1   
    33    15    43 1   
    34    16    17 2   
    35    18    24 1   
    36    19    20 2   
    37    19    23 1   
    38    20    21 1   
    39    20    44 1   
    40    21    22 1   
    41    22    23 2   
    42    22    45 1   
    43    23    46 1   
    44    25    26 1   
    45    26    27 ar  
    46    26    31 ar  
    47    27    28 ar  
    48    27    47 1   
    49    28    29 ar  
    50    28    48 1   
    51    29    30 ar  
    52    29    49 1   
    53    30    31 ar  
    54    31    50 1   
@<TRIPOS>SUBSTRUCTURE
     1 Y6D         1 TEMP              0 ****  ****    0 ROOT
