@<TRIPOS>MOLECULE
Y6G
   48    52     1     0     0
SMALL
abcg2


@<TRIPOS>ATOM
      1 O01        -22.9950   -39.3970     3.4410 o          1 Y6G      -0.571100
      2 C02        -23.6010   -40.4080     3.1440 c          1 Y6G       0.592100
      3 C03        -22.8790   -41.5910     2.4960 c3         1 Y6G       0.001600
      4 N04        -21.5130   -41.2570     2.2250 na         1 Y6G       0.075600
      5 C05        -21.0080   -40.4960     1.2250 ca         1 Y6G      -0.063200
      6 C06        -21.5680   -39.8640     0.1130 ca         1 Y6G      -0.107000
      7 C07        -20.6890   -39.1810    -0.6970 ca         1 Y6G      -0.078000
      8 C08        -19.3050   -39.1240    -0.4230 ca         1 Y6G      -0.139000
      9 C09        -18.7630   -39.7510     0.6750 ca         1 Y6G      -0.029000
     10 C10        -19.6430   -40.4470     1.5110 ca         1 Y6G       0.014400
     11 N11        -19.4250   -41.1590     2.6560 nc         1 Y6G      -0.218400
     12 N12        -20.5440   -41.6180     3.0620 nd         1 Y6G      -0.157400
     13 N13        -24.9300   -40.5670     3.3240 n          1 Y6G      -0.238400
     14 C14        -25.7200   -39.4930     3.9250 c3         1 Y6G       0.174300
     15 C15        -25.8820   -39.6630     5.4070 cc         1 Y6G      -0.147300
     16 C16        -24.9930   -39.2010     6.3340 cd         1 Y6G      -0.215000
     17 S17        -25.4610   -39.6120     7.9280 ss         1 Y6G       0.209000
     18 C18        -26.8700   -40.4130     7.3710 cd         1 Y6G      -0.254000
     19 C19        -26.9650   -40.3630     6.0150 cc         1 Y6G      -0.119000
     20 C20        -25.5850   -41.8090     3.0990 ca         1 Y6G      -0.074000
     21 C21        -26.3570   -41.9950     1.9600 ca         1 Y6G      -0.113000
     22 C22        -27.0140   -43.1960     1.7490 ca         1 Y6G      -0.093000
     23 C23        -26.9140   -44.2390     2.6720 ca         1 Y6G      -0.088500
     24 C24        -27.6010   -45.5060     2.4350 cc         1 Y6G       0.284500
     25 C25        -27.6410   -46.6200     3.2370 cd         1 Y6G      -0.206000
     26 N26        -28.4060   -47.5210     2.5670 na         1 Y6G      -0.297500
     27 C27        -28.7980   -46.9490     1.4110 cd         1 Y6G       0.395400
     28 N28        -28.3320   -45.7340     1.2990 nc         1 Y6G      -0.669000
     29 C29        -26.1410   -44.0360     3.8170 ca         1 Y6G      -0.093000
     30 C30        -25.4890   -42.8350     4.0330 ca         1 Y6G      -0.113000
     31 H1         -23.3710   -41.8870     1.5680 h1         1 Y6G       0.092700
     32 H2         -22.8860   -42.4620     3.1520 h1         1 Y6G       0.092700
     33 H3         -22.6280   -39.9030    -0.1020 ha         1 Y6G       0.123000
     34 H4         -21.0680   -38.6690    -1.5730 ha         1 Y6G       0.114000
     35 H5         -18.6630   -38.5720    -1.0960 ha         1 Y6G       0.116000
     36 H6         -17.7030   -39.7090     0.8870 ha         1 Y6G       0.132000
     37 H7         -25.2430   -38.5430     3.6930 h1         1 Y6G       0.068200
     38 H8         -26.6960   -39.4900     3.4380 h1         1 Y6G       0.068200
     39 H9         -24.0870   -38.6410     6.1550 h4         1 Y6G       0.165000
     40 H10        -27.5530   -40.8720     8.0690 h4         1 Y6G       0.150000
     41 H11        -27.7810   -40.8030     5.4570 ha         1 Y6G       0.135000
     42 H12        -26.4400   -41.1980     1.2300 ha         1 Y6G       0.125000
     43 H13        -27.6080   -43.3270     0.8550 ha         1 Y6G       0.127500
     44 H14        -27.2060   -46.8430     4.1970 h4         1 Y6G       0.161000
     45 H15        -28.6350   -48.4520     2.8800 hn         1 Y6G       0.356000
     46 H16        -29.4180   -47.4610     0.6920 h5         1 Y6G       0.059100
     47 H18        -26.0410   -44.8200     4.5580 ha         1 Y6G       0.127500
     48 H19        -24.9010   -42.6920     4.9310 ha         1 Y6G       0.125000
@<TRIPOS>BOND
     1     1     2 2   
     2     2     3 1   
     3     2    13 1   
     4     3     4 1   
     5     3    31 1   
     6     3    32 1   
     7     4     5 1   
     8     4    12 1   
     9     5     6 ar  
    10     5    10 ar  
    11     6     7 ar  
    12     6    33 1   
    13     7     8 ar  
    14     7    34 1   
    15     8     9 ar  
    16     8    35 1   
    17     9    10 ar  
    18     9    36 1   
    19    10    11 1   
    20    11    12 2   
    21    13    14 1   
    22    13    20 1   
    23    14    15 1   
    24    14    37 1   
    25    14    38 1   
    26    15    16 2   
    27    15    19 1   
    28    16    17 1   
    29    16    39 1   
    30    17    18 1   
    31    18    19 2   
    32    18    40 1   
    33    19    41 1   
    34    20    21 ar  
    35    20    30 ar  
    36    21    22 ar  
    37    21    42 1   
    38    22    23 ar  
    39    22    43 1   
    40    23    24 1   
    41    23    29 ar  
    42    24    25 2   
    43    24    28 1   
    44    25    26 1   
    45    25    44 1   
    46    26    27 1   
    47    26    45 1   
    48    27    28 2   
    49    27    46 1   
    50    29    30 ar  
    51    29    47 1   
    52    30    48 1   
@<TRIPOS>SUBSTRUCTURE
     1 Y6G         1 TEMP              0 ****  ****    0 ROOT
