@<TRIPOS>MOLECULE
Y6G
   48    52     1     0     0
SMALL
No Charge or Current Charge


@<TRIPOS>ATOM
      1 O01        -22.7010   -39.6540     4.4050 o          1 Y6G      -0.571100
      2 C02        -23.2740   -40.6230     3.9130 c          1 Y6G       0.592100
      3 C03        -22.4650   -41.8210     3.3880 c3         1 Y6G       0.001600
      4 N04        -21.2110   -41.4240     2.7350 na         1 Y6G       0.075600
      5 C05        -21.1220   -40.8190     1.5210 ca         1 Y6G      -0.063200
      6 C06        -22.0970   -40.4010     0.6040 ca         1 Y6G      -0.107000
      7 C07        -21.6430   -39.7910    -0.5840 ca         1 Y6G      -0.078000
      8 C08        -20.2550   -39.6220    -0.8120 ca         1 Y6G      -0.139000
      9 C09        -19.3100   -40.0610     0.1440 ca         1 Y6G      -0.029000
     10 C10        -19.7860   -40.6650     1.3180 ca         1 Y6G       0.014400
     11 N11        -19.0670   -41.1760     2.3970 nc         1 Y6G      -0.218400
     12 N12        -19.9600   -41.6500     3.2720 nd         1 Y6G      -0.157400
     13 N13        -24.6860   -40.6380     3.7500 n          1 Y6G      -0.238400
     14 C14        -25.4300   -39.3750     3.9740 c3         1 Y6G       0.174300
     15 C15        -25.8610   -39.2470     5.4140 cc         1 Y6G      -0.147300
     16 C16        -25.2630   -38.4720     6.3770 cd         1 Y6G      -0.215000
     17 S17        -26.0750   -38.6100     7.9470 ss         1 Y6G       0.209000
     18 C18        -27.2370   -39.7460     7.2480 cd         1 Y6G      -0.254000
     19 C19        -26.9770   -39.9640     5.9210 cc         1 Y6G      -0.119000
     20 C20        -25.4540   -41.8070     3.3990 ca         1 Y6G      -0.074000
     21 C21        -26.2580   -41.7930     2.2430 ca         1 Y6G      -0.113000
     22 C22        -26.8950   -42.9640     1.7980 ca         1 Y6G      -0.093000
     23 C23        -26.7200   -44.1880     2.4770 ca         1 Y6G      -0.088500
     24 C24        -27.3770   -45.4100     1.9830 cc         1 Y6G       0.284500
     25 C25        -27.4540   -46.5570     2.7260 cd         1 Y6G      -0.206000
     26 N26        -28.1520   -47.4390     1.9120 na         1 Y6G      -0.297500
     27 C27        -28.4610   -46.7760     0.7350 cd         1 Y6G       0.395400
     28 N28        -27.9950   -45.5340     0.7720 nc         1 Y6G      -0.669000
     29 C29        -25.8470   -44.2150     3.5880 ca         1 Y6G      -0.093000
     30 C30        -25.2090   -43.0430     4.0280 ca         1 Y6G      -0.113000
     31 H1         -23.0620   -42.3690     2.6520 h1         1 Y6G       0.092700
     32 H2         -22.2520   -42.4870     4.2310 h1         1 Y6G       0.092700
     33 H3         -23.1590   -40.5390     0.7940 ha         1 Y6G       0.123000
     34 H4         -22.3610   -39.4490    -1.3270 ha         1 Y6G       0.114000
     35 H5         -19.9120   -39.1500    -1.7300 ha         1 Y6G       0.116000
     36 H6         -18.2430   -39.9350    -0.0240 ha         1 Y6G       0.132000
     37 H7         -24.8090   -38.5140     3.6920 h1         1 Y6G       0.068200
     38 H8         -26.3210   -39.3470     3.3350 h1         1 Y6G       0.068200
     39 H9         -24.3950   -37.8310     6.2750 h4         1 Y6G       0.165000
     40 H10        -28.0230   -40.1710     7.8600 h4         1 Y6G       0.150000
     41 H11        -27.5650   -40.6320     5.2960 ha         1 Y6G       0.135000
     42 H12        -26.3880   -40.8750     1.6750 ha         1 Y6G       0.125000
     43 H13        -27.5250   -42.9160     0.9120 ha         1 Y6G       0.127500
     44 H14        -27.0950   -46.8030     3.7190 h4         1 Y6G       0.161000
     45 H15        -28.4060   -48.3970     2.1230 hn         1 Y6G       0.356000
     46 H16        -29.0120   -47.2460    -0.0720 h5         1 Y6G       0.059100
     47 H18        -25.6450   -45.1450     4.1130 ha         1 Y6G       0.127500
     48 H19        -24.5440   -43.0970     4.8870 ha         1 Y6G       0.125000
@<TRIPOS>BOND
     1     1     2 2   
     2     2     3 1   
     3     2    13 1   
     4     3     4 1   
     5     3    31 1   
     6     3    32 1   
     7     4     5 1   
     8     4    12 1   
     9     5     6 ar  
    10     5    10 ar  
    11     6     7 ar  
    12     6    33 1   
    13     7     8 ar  
    14     7    34 1   
    15     8     9 ar  
    16     8    35 1   
    17     9    10 ar  
    18     9    36 1   
    19    10    11 1   
    20    11    12 2   
    21    13    14 1   
    22    13    20 1   
    23    14    15 1   
    24    14    37 1   
    25    14    38 1   
    26    15    16 2   
    27    15    19 1   
    28    16    17 1   
    29    16    39 1   
    30    17    18 1   
    31    18    19 2   
    32    18    40 1   
    33    19    41 1   
    34    20    21 ar  
    35    20    30 ar  
    36    21    22 ar  
    37    21    42 1   
    38    22    23 ar  
    39    22    43 1   
    40    23    24 1   
    41    23    29 ar  
    42    24    25 2   
    43    24    28 1   
    44    25    26 1   
    45    25    44 1   
    46    26    27 1   
    47    26    45 1   
    48    27    28 2   
    49    27    46 1   
    50    29    30 ar  
    51    29    47 1   
    52    30    48 1   
@<TRIPOS>SUBSTRUCTURE
     1 Y6G         1 TEMP              0 ****  ****    0 ROOT
