@<TRIPOS>MOLECULE
Y6H
   63    65     1     0     0
SMALL
abcg2


@<TRIPOS>ATOM
      1 C10        113.5820   114.1770   108.6410 ca         1 Y6H      -0.185000
      2 C11        114.2620   115.1730   109.3480 ca         1 Y6H       0.271000
      3 C13        115.9930   115.5020   107.6090 c3         1 Y6H       0.285100
      4 C14        115.2430   115.9070   106.3530 ca         1 Y6H      -0.081300
      5 C15        114.3740   116.9930   106.3380 ca         1 Y6H      -0.106500
      6 C16        113.7280   117.3730   105.1670 ca         1 Y6H      -0.092500
      7 C17        113.9360   116.6800   103.9770 ca         1 Y6H      -0.126300
      8 C18        113.2520   117.1080   102.6780 c6         1 Y6H       0.450300
      9 C24        110.8650   117.3390   102.4220 c6         1 Y6H       0.166100
     10 C25        110.6120   115.8650   102.7470 c6         1 Y6H      -0.114000
     11 C26        109.4920   115.3450   101.8430 c3         1 Y6H      -0.081600
     12 O29        112.9300   115.9860   101.8860 os         1 Y6H      -0.480500
     13 C03        113.7960   115.4930   110.6480 ca         1 Y6H       0.024100
     14 C04        112.7060   114.8410   111.1890 ca         1 Y6H      -0.119000
     15 C05        112.0270   113.8420   110.4730 ca         1 Y6H      -0.133600
     16 C06        110.8260   113.1420   111.0850 c          1 Y6H       0.706600
     17 C09        112.4860   113.5230   109.2010 ca         1 Y6H      -0.081000
     18 C19        114.1540   118.0430   101.7990 c3         1 Y6H      -0.036000
     19 C20        113.3750   118.4840   100.5500 c3         1 Y6H      -0.081433
     20 C27        110.2210   115.7010   104.2190 c3         1 Y6H      -0.081600
     21 C28        111.9440   115.1210   102.4630 c6         1 Y6H       0.166100
     22 C30        114.7990   115.5850   103.9950 ca         1 Y6H      -0.092500
     23 C31        115.4390   115.2010   105.1680 ca         1 Y6H      -0.106500
     24 N12        115.3350   115.8640   108.8420 nu         1 Y6H      -0.993200
     25 O02        114.5150   116.4730   111.2820 os         1 Y6H      -0.390100
     26 O07        110.2970   112.2110   110.4190 o          1 Y6H      -0.729000
     27 O08        110.4390   113.5410   112.2170 o          1 Y6H      -0.729000
     28 O23        112.0580   117.8210   103.0360 os         1 Y6H      -0.480500
     29 H101       113.9080   113.9170   107.6440 ha         1 Y6H       0.095000
     30 H132       116.1910   114.4240   107.5680 h1         1 Y6H       0.034200
     31 H131       116.9670   115.9960   107.6120 h1         1 Y6H       0.034200
     32 H151       114.1940   117.5390   107.2560 ha         1 Y6H       0.120000
     33 H161       113.0480   118.2120   105.1810 ha         1 Y6H       0.118500
     34 H211       116.0620   117.0550   102.2010 hc         1 Y6H       0.036033
     35 H213       115.2040   116.4130   100.7940 hc         1 Y6H       0.036033
     36 H212       116.0080   117.9840   100.7050 hc         1 Y6H       0.036033
     37 H222       115.1750   119.0440   103.4530 hc         1 Y6H       0.036033
     38 H221       115.1000   119.9730   101.9540 hc         1 Y6H       0.036033
     39 H223       113.6600   119.8170   102.9650 hc         1 Y6H       0.036033
     40 H241       110.9060   117.4810   101.3400 h1         1 Y6H       0.052700
     41 H242       110.0620   117.9620   102.8190 h1         1 Y6H       0.052700
     42 H263       108.5700   115.9090   102.0030 hc         1 Y6H       0.040033
     43 H261       109.7680   115.4330   100.7890 hc         1 Y6H       0.040033
     44 H262       109.2850   114.2940   102.0550 hc         1 Y6H       0.040033
     45 H012       114.8320   117.6030   112.9210 h1         1 Y6H       0.031033
     46 H013       113.1150   117.2220   112.6310 h1         1 Y6H       0.031033
     47 H011       114.2090   115.9720   113.2800 h1         1 Y6H       0.031033
     48 H041       112.3500   115.0880   112.1780 ha         1 Y6H       0.133000
     49 H091       111.9770   112.7540   108.6360 ha         1 Y6H       0.127000
     50 H203       112.4920   119.0650   100.8170 hc         1 Y6H       0.036033
     51 H202       114.0170   119.1150    99.9330 hc         1 Y6H       0.036033
     52 H201       113.0620   117.6290    99.9520 hc         1 Y6H       0.036033
     53 H272       110.9830   116.1270   104.8740 hc         1 Y6H       0.040033
     54 H271       109.2710   116.1980   104.4240 hc         1 Y6H       0.040033
     55 H273       110.1110   114.6430   104.4710 hc         1 Y6H       0.040033
     56 H282       111.8060   114.3270   101.7300 h1         1 Y6H       0.052700
     57 H281       112.3390   114.6760   103.3790 h1         1 Y6H       0.052700
     58 H301       114.9570   115.0150   103.0900 ha         1 Y6H       0.118500
     59 H311       116.0910   114.3350   105.1620 ha         1 Y6H       0.120000
     60 H121       115.8580   116.4100   109.5040 hn         1 Y6H       0.488000
     61 C21        115.4320   117.3210   101.3530 c3         1 Y6H      -0.081433
     62 C22        114.5430   119.2920   102.6000 c3         1 Y6H      -0.081433
     63 C01        114.1350   116.8300   112.6070 c3         1 Y6H       0.159900
@<TRIPOS>BOND
     1     1     2 ar  
     2     1    17 ar  
     3     1    29 1   
     4     2    13 ar  
     5     2    24 1   
     6     3     4 1   
     7     3    24 1   
     8     3    30 1   
     9     3    31 1   
    10     4     5 ar  
    11     4    23 ar  
    12     5     6 ar  
    13     5    32 1   
    14     6     7 ar  
    15     6    33 1   
    16     7     8 1   
    17     7    22 ar  
    18     8    12 1   
    19     8    18 1   
    20     8    28 1   
    21     9    10 1   
    22     9    28 1   
    23     9    40 1   
    24     9    41 1   
    25    10    11 1   
    26    10    20 1   
    27    10    21 1   
    28    11    42 1   
    29    11    43 1   
    30    11    44 1   
    31    12    21 1   
    32    13    14 ar  
    33    13    25 1   
    34    14    15 ar  
    35    14    48 1   
    36    15    16 1   
    37    15    17 ar  
    38    16    26 1   
    39    16    27 1   
    40    17    49 1   
    41    18    19 1   
    42    18    61 1   
    43    18    62 1   
    44    19    50 1   
    45    19    51 1   
    46    19    52 1   
    47    20    53 1   
    48    20    54 1   
    49    20    55 1   
    50    21    56 1   
    51    21    57 1   
    52    22    23 ar  
    53    22    58 1   
    54    23    59 1   
    55    24    60 1   
    56    25    63 1   
    57    34    61 1   
    58    35    61 1   
    59    36    61 1   
    60    37    62 1   
    61    38    62 1   
    62    39    62 1   
    63    45    63 1   
    64    46    63 1   
    65    47    63 1   
@<TRIPOS>SUBSTRUCTURE
     1 Y6H         1 TEMP              0 ****  ****    0 ROOT
