@<TRIPOS>MOLECULE
Y6H
   63    65     1     0     0
SMALL
No Charge or Current Charge


@<TRIPOS>ATOM
      1 C10        115.1360   113.4320   108.8130 ca         1 Y6H      -0.185000
      2 C11        114.7320   114.7510   109.0680 ca         1 Y6H       0.271000
      3 C13        116.5830   116.0470   107.9410 c3         1 Y6H       0.285100
      4 C14        115.7810   116.3770   106.6870 ca         1 Y6H      -0.081300
      5 C15        115.3410   117.6920   106.4490 ca         1 Y6H      -0.106500
      6 C16        114.5500   117.9870   105.3260 ca         1 Y6H      -0.092500
      7 C17        114.1770   116.9710   104.4140 ca         1 Y6H      -0.126300
      8 C18        113.2560   117.2840   103.1950 c6         1 Y6H       0.450300
      9 C24        111.1130   118.4850   103.1860 c6         1 Y6H       0.166100
     10 C25        110.3490   116.7800   104.2430 c6         1 Y6H      -0.114000
     11 C26        108.9940   116.3270   103.6340 c3         1 Y6H      -0.081600
     12 O29        112.3530   116.1490   102.9620 os         1 Y6H      -0.480500
     13 C03        113.3660   115.0350   109.3150 ca         1 Y6H       0.024100
     14 C04        112.4220   113.9810   109.2970 ca         1 Y6H      -0.119000
     15 C05        112.8260   112.6480   109.0390 ca         1 Y6H      -0.133600
     16 C06        111.8090   111.5130   109.0220 c          1 Y6H       0.706600
     17 C09        114.1950   112.3890   108.7980 ca         1 Y6H      -0.081000
     18 C19        114.0960   117.5180   101.8530 c3         1 Y6H      -0.036000
     19 C20        113.1840   117.8760   100.6410 c3         1 Y6H      -0.081433
     20 C27        110.1500   117.1180   105.7460 c3         1 Y6H      -0.081600
     21 C28        111.4690   115.7360   104.0440 c6         1 Y6H       0.166100
     22 C30        114.6440   115.6570   104.6510 ca         1 Y6H      -0.092500
     23 C31        115.4350   115.3640   105.7740 ca         1 Y6H      -0.106500
     24 N12        115.6700   115.7880   109.0640 nu         1 Y6H      -0.993200
     25 O02        112.9920   116.3520   109.5590 os         1 Y6H      -0.390100
     26 O07        112.2000   110.3790   108.7820 o          1 Y6H      -0.729000
     27 O08        110.6360   111.7730   109.2510 o          1 Y6H      -0.729000
     28 O23        112.5130   118.5090   103.4860 os         1 Y6H      -0.480500
     29 H101       116.1830   113.2090   108.6280 ha         1 Y6H       0.095000
     30 H132       117.2210   115.1720   107.7540 h1         1 Y6H       0.034200
     31 H131       117.2440   116.8910   108.1830 h1         1 Y6H       0.034200
     32 H151       115.5990   118.4860   107.1460 ha         1 Y6H       0.120000
     33 H161       114.2220   119.0130   105.1770 ha         1 Y6H       0.118500
     34 H211       115.6780   116.0130   102.1950 hc         1 Y6H       0.036033
     35 H213       114.2620   115.3790   101.3290 hc         1 Y6H       0.036033
     36 H212       115.4340   116.4100   100.4960 hc         1 Y6H       0.036033
     37 H222       115.8560   118.4520   102.8000 hc         1 Y6H       0.036033
     38 H221       115.6460   118.8900   101.0980 hc         1 Y6H       0.036033
     39 H223       114.5940   119.6060   102.3320 hc         1 Y6H       0.036033
     40 H241       110.9630   118.3590   102.1070 h1         1 Y6H       0.052700
     41 H242       110.6330   119.4160   103.5190 h1         1 Y6H       0.052700
     42 H263       108.2360   117.1150   103.7230 hc         1 Y6H       0.040033
     43 H261       109.1000   116.0930   102.5680 hc         1 Y6H       0.040033
     44 H262       108.6060   115.4310   104.1350 hc         1 Y6H       0.040033
     45 H012       111.5500   117.8320   109.8780 h1         1 Y6H       0.031033
     46 H013       111.0330   116.4990   108.8250 h1         1 Y6H       0.031033
     47 H011       111.1650   116.2500   110.5870 h1         1 Y6H       0.031033
     48 H041       111.3720   114.1830   109.4830 ha         1 Y6H       0.133000
     49 H091       114.5360   111.3750   108.5980 ha         1 Y6H       0.127000
     50 H203       112.6950   118.8460   100.7820 hc         1 Y6H       0.036033
     51 H202       113.7680   117.9450    99.7150 hc         1 Y6H       0.036033
     52 H201       112.4080   117.1160   100.4880 hc         1 Y6H       0.036033
     53 H272       111.0840   117.4810   106.1920 hc         1 Y6H       0.040033
     54 H271       109.3980   117.9050   105.8770 hc         1 Y6H       0.040033
     55 H273       109.8240   116.2400   106.3170 hc         1 Y6H       0.040033
     56 H282       111.0350   114.7570   103.7940 h1         1 Y6H       0.052700
     57 H281       112.0460   115.6070   104.9690 h1         1 Y6H       0.052700
     58 H301       114.3770   114.8500   103.9730 ha         1 Y6H       0.118500
     59 H311       115.7620   114.3410   105.9470 ha         1 Y6H       0.120000
     60 H121       115.2340   116.6410   109.4190 hn         1 Y6H       0.488000
     61 C21        114.9120   116.2530   101.4490 c3         1 Y6H      -0.081433
     62 C22        115.1090   118.6860   102.0330 c3         1 Y6H      -0.081433
     63 C01        111.6170   116.7480   109.7200 c3         1 Y6H       0.159900
@<TRIPOS>BOND
     1     1     2 ar  
     2     1    17 ar  
     3     1    29 1   
     4     2    13 ar  
     5     2    24 1   
     6     3     4 1   
     7     3    24 1   
     8     3    30 1   
     9     3    31 1   
    10     4     5 ar  
    11     4    23 ar  
    12     5     6 ar  
    13     5    32 1   
    14     6     7 ar  
    15     6    33 1   
    16     7     8 1   
    17     7    22 ar  
    18     8    12 1   
    19     8    18 1   
    20     8    28 1   
    21     9    10 1   
    22     9    28 1   
    23     9    40 1   
    24     9    41 1   
    25    10    11 1   
    26    10    20 1   
    27    10    21 1   
    28    11    42 1   
    29    11    43 1   
    30    11    44 1   
    31    12    21 1   
    32    13    14 ar  
    33    13    25 1   
    34    14    15 ar  
    35    14    48 1   
    36    15    16 1   
    37    15    17 ar  
    38    16    26 1   
    39    16    27 1   
    40    17    49 1   
    41    18    19 1   
    42    18    61 1   
    43    18    62 1   
    44    19    50 1   
    45    19    51 1   
    46    19    52 1   
    47    20    53 1   
    48    20    54 1   
    49    20    55 1   
    50    21    56 1   
    51    21    57 1   
    52    22    23 ar  
    53    22    58 1   
    54    23    59 1   
    55    24    60 1   
    56    25    63 1   
    57    34    61 1   
    58    35    61 1   
    59    36    61 1   
    60    37    62 1   
    61    38    62 1   
    62    39    62 1   
    63    45    63 1   
    64    46    63 1   
    65    47    63 1   
@<TRIPOS>SUBSTRUCTURE
     1 Y6H         1 TEMP              0 ****  ****    0 ROOT
