@<TRIPOS>MOLECULE
Y6J
   52    56     1     0     0
SMALL
abcg2


@<TRIPOS>ATOM
      1 C10         22.1820     1.0100    18.5460 ca         1 Y6J       0.016400
      2 N11         21.2450     0.4140    17.7500 nc         1 Y6J      -0.217400
      3 N13         25.3550     0.0270    14.0430 n          1 Y6J      -0.240400
      4 C15         24.9440     0.6800    11.6850 cc         1 Y6J      -0.122300
      5 C20         26.1490    -1.1400    14.2300 ca         1 Y6J      -0.098000
      6 C23         27.7410    -3.4070    14.6340 ca         1 Y6J      -0.006000
      7 C19         25.2970     1.3170    10.4570 cc         1 Y6J      -0.129000
      8 C18         24.4680     0.9870     9.4310 cd         1 Y6J      -0.240000
      9 C16         23.8520    -0.1200    11.5440 cd         1 Y6J      -0.225000
     10 C02         24.3540     0.3590    14.8900 c          1 Y6J       0.588100
     11 C03         24.0750    -0.6420    16.0100 c3         1 Y6J       0.003600
     12 C05         23.4430     0.6970    18.0360 ca         1 Y6J      -0.069200
     13 C06         24.6270     1.1470    18.6230 ca         1 Y6J      -0.112000
     14 C07         24.4820     1.9270    19.7490 ca         1 Y6J      -0.077000
     15 C08         23.2130     2.2520    20.2770 ca         1 Y6J      -0.139000
     16 C09         22.0520     1.8030    19.6910 ca         1 Y6J      -0.027000
     17 C14         25.7060     0.9250    12.9560 c3         1 Y6J       0.175300
     18 C21         25.7280    -2.3800    13.7680 ca         1 Y6J      -0.082000
     19 C22         26.5120    -3.5000    13.9740 ca         1 Y6J      -0.148000
     20 C25         29.6000    -4.8150    15.5050 c          1 Y6J       0.643100
     21 C26         30.0520    -6.2300    15.4770 cx         1 Y6J      -0.255700
     22 C27         30.7040    -6.7850    16.7190 cx         1 Y6J      -0.092400
     23 C28         31.5350    -6.4970    15.5240 cx         1 Y6J      -0.092400
     24 C30         28.1700    -2.1550    15.0820 ca         1 Y6J      -0.148000
     25 C31         27.3720    -1.0420    14.8790 ca         1 Y6J      -0.082000
     26 N04         23.1650    -0.0860    16.9670 na         1 Y6J       0.073600
     27 N12         21.8500    -0.2190    16.8220 nd         1 Y6J      -0.151400
     28 N24         28.4610    -4.5900    14.7920 ns         1 Y6J      -0.144000
     29 O01         23.6950     1.3730    14.7800 o          1 Y6J      -0.554100
     30 O29         30.2010    -3.9470    16.1130 o          1 Y6J      -0.581100
     31 S17         23.2510    -0.1070     9.9370 ss         1 Y6J       0.200000
     32 H1          26.1350     1.9920    10.3510 ha         1 Y6J       0.132000
     33 H2          24.5150     1.3230     8.4060 h4         1 Y6J       0.150000
     34 H3          23.3600    -0.7190    12.2950 h4         1 Y6J       0.149000
     35 H4          23.6300    -1.5500    15.5990 h1         1 Y6J       0.090200
     36 H5          24.9870    -0.9430    16.5260 h1         1 Y6J       0.090200
     37 H6          25.6020     0.9010    18.2230 ha         1 Y6J       0.122000
     38 H7          25.3650     2.3040    20.2470 ha         1 Y6J       0.115000
     39 H8          23.1610     2.8690    21.1640 ha         1 Y6J       0.117000
     40 H9          21.0800     2.0490    20.0960 ha         1 Y6J       0.133000
     41 H10         26.7750     0.8190    12.7660 h1         1 Y6J       0.067200
     42 H11         25.5540     1.9560    13.2810 h1         1 Y6J       0.067200
     43 H12         24.7800    -2.4780    13.2560 ha         1 Y6J       0.125500
     44 H13         26.1640    -4.4630    13.6180 ha         1 Y6J       0.135500
     45 H14         29.4530    -6.9220    14.8970 hc         1 Y6J       0.086700
     46 H15         30.7900    -6.1250    17.5720 hc         1 Y6J       0.084450
     47 H16         30.4810    -7.8150    16.9610 hc         1 Y6J       0.084450
     48 H17         31.8960    -7.3260    14.9300 hc         1 Y6J       0.084450
     49 H18         32.1910    -5.6380    15.5540 hc         1 Y6J       0.084450
     50 H19         29.1120    -2.0410    15.5910 ha         1 Y6J       0.135500
     51 H20         27.7080    -0.0780    15.2400 ha         1 Y6J       0.125500
     52 H21         28.0480    -5.3980    14.3510 hn         1 Y6J       0.154000
@<TRIPOS>BOND
     1     1     2 1   
     2     1    12 ar  
     3     1    16 ar  
     4     2    27 2   
     5     3     5 1   
     6     3    10 1   
     7     3    17 1   
     8     4     7 1   
     9     4     9 2   
    10     4    17 1   
    11     5    18 ar  
    12     5    25 ar  
    13     6    19 ar  
    14     6    24 ar  
    15     6    28 1   
    16     7     8 2   
    17     7    32 1   
    18     8    31 1   
    19     8    33 1   
    20     9    31 1   
    21     9    34 1   
    22    10    11 1   
    23    10    29 2   
    24    11    26 1   
    25    11    35 1   
    26    11    36 1   
    27    12    13 ar  
    28    12    26 1   
    29    13    14 ar  
    30    13    37 1   
    31    14    15 ar  
    32    14    38 1   
    33    15    16 ar  
    34    15    39 1   
    35    16    40 1   
    36    17    41 1   
    37    17    42 1   
    38    18    19 ar  
    39    18    43 1   
    40    19    44 1   
    41    20    21 1   
    42    20    28 1   
    43    20    30 2   
    44    21    22 1   
    45    21    23 1   
    46    21    45 1   
    47    22    23 1   
    48    22    46 1   
    49    22    47 1   
    50    23    48 1   
    51    23    49 1   
    52    24    25 ar  
    53    24    50 1   
    54    25    51 1   
    55    26    27 1   
    56    28    52 1   
@<TRIPOS>SUBSTRUCTURE
     1 Y6J         1 TEMP              0 ****  ****    0 ROOT
