@<TRIPOS>MOLECULE
Y6J
   52    56     1     0     0
SMALL
No Charge or Current Charge


@<TRIPOS>ATOM
      1 C10         22.3460     0.5530    18.8060 ca         1 Y6J       0.016400
      2 N11         21.2160    -0.1680    18.4270 nc         1 Y6J      -0.217400
      3 N13         25.0590     0.0250    14.0800 n          1 Y6J      -0.240400
      4 C15         24.9270     1.0290    11.8290 cc         1 Y6J      -0.122300
      5 C20         26.0200    -1.0490    14.1430 ca         1 Y6J      -0.098000
      6 C23         27.8390    -3.1820    14.6130 ca         1 Y6J      -0.006000
      7 C19         25.6030     0.1740    10.9190 cc         1 Y6J      -0.129000
      8 C18         25.0440     0.1180     9.6700 cd         1 Y6J      -0.240000
      9 C16         23.8340     1.6320    11.2580 cd         1 Y6J      -0.225000
     10 C02         23.8020     0.0200    14.7440 c          1 Y6J       0.588100
     11 C03         23.5580    -1.0350    15.8380 c3         1 Y6J       0.003600
     12 C05         23.3580     0.3490    17.9210 ca         1 Y6J      -0.069200
     13 C06         24.6230     0.9420    18.0420 ca         1 Y6J      -0.112000
     14 C07         24.8310     1.7930    19.1470 ca         1 Y6J      -0.077000
     15 C08         23.7880     2.0190    20.0790 ca         1 Y6J      -0.139000
     16 C09         22.5290     1.3950    19.9130 ca         1 Y6J      -0.027000
     17 C14         25.4050     1.2040    13.2500 c3         1 Y6J       0.175300
     18 C21         25.6110    -2.3890    13.9970 ca         1 Y6J      -0.082000
     19 C22         26.5180    -3.4410    14.2070 ca         1 Y6J      -0.148000
     20 C25         30.0520    -4.3880    15.1080 c          1 Y6J       0.643100
     21 C26         30.5370    -5.8140    15.2520 cx         1 Y6J      -0.255700
     22 C27         29.9750    -6.6690    16.3720 cx         1 Y6J      -0.092400
     23 C28         31.4020    -6.1800    16.4430 cx         1 Y6J      -0.092400
     24 C30         28.2300    -1.8440    14.8310 ca         1 Y6J      -0.148000
     25 C31         27.3220    -0.7930    14.6180 ca         1 Y6J      -0.082000
     26 N04         22.8340    -0.5000    16.9980 na         1 Y6J       0.073600
     27 N12         21.5270    -0.8230    17.3050 nd         1 Y6J      -0.151400
     28 N24         28.7010    -4.2950    14.8110 ns         1 Y6J      -0.144000
     29 O01         22.9490     0.8680    14.4980 o          1 Y6J      -0.554100
     30 O29         30.8140    -3.4360    15.2320 o          1 Y6J      -0.581100
     31 S17         23.6130     1.1530     9.5660 ss         1 Y6J       0.200000
     32 H1          26.4880    -0.3880    11.2060 ha         1 Y6J       0.132000
     33 H2          25.3690    -0.4560     8.8110 h4         1 Y6J       0.150000
     34 H3          23.1370     2.3230    11.7180 h4         1 Y6J       0.149000
     35 H4          22.9950    -1.8640    15.3970 h1         1 Y6J       0.090200
     36 H5          24.5200    -1.4170    16.1960 h1         1 Y6J       0.090200
     37 H6          25.4140     0.7580    17.3180 ha         1 Y6J       0.122000
     38 H7          25.7960     2.2770    19.2850 ha         1 Y6J       0.115000
     39 H8          23.9550     2.6760    20.9290 ha         1 Y6J       0.117000
     40 H9          21.7230     1.5630    20.6240 ha         1 Y6J       0.133000
     41 H10         26.4920     1.3490    13.2400 h1         1 Y6J       0.067200
     42 H11         24.9660     2.1130    13.6820 h1         1 Y6J       0.067200
     43 H12         24.5950    -2.6210    13.6840 ha         1 Y6J       0.125500
     44 H13         26.1870    -4.4670    14.0570 ha         1 Y6J       0.135500
     45 H14         30.7590    -6.3160    14.3140 hc         1 Y6J       0.086700
     46 H15         29.2570    -6.2220    17.0570 hc         1 Y6J       0.084450
     47 H16         29.8120    -7.7260    16.1730 hc         1 Y6J       0.084450
     48 H17         32.1950    -6.9090    16.2910 hc         1 Y6J       0.084450
     49 H18         31.6350    -5.4050    17.1700 hc         1 Y6J       0.084450
     50 H19         29.2260    -1.5980    15.1850 ha         1 Y6J       0.135500
     51 H20         27.6370     0.2260    14.8340 ha         1 Y6J       0.125500
     52 H21         28.2400    -5.1910    14.7250 hn         1 Y6J       0.154000
@<TRIPOS>BOND
     1     1     2 1   
     2     1    12 ar  
     3     1    16 ar  
     4     2    27 2   
     5     3     5 1   
     6     3    10 1   
     7     3    17 1   
     8     4     7 1   
     9     4     9 2   
    10     4    17 1   
    11     5    18 ar  
    12     5    25 ar  
    13     6    19 ar  
    14     6    24 ar  
    15     6    28 1   
    16     7     8 2   
    17     7    32 1   
    18     8    31 1   
    19     8    33 1   
    20     9    31 1   
    21     9    34 1   
    22    10    11 1   
    23    10    29 2   
    24    11    26 1   
    25    11    35 1   
    26    11    36 1   
    27    12    13 ar  
    28    12    26 1   
    29    13    14 ar  
    30    13    37 1   
    31    14    15 ar  
    32    14    38 1   
    33    15    16 ar  
    34    15    39 1   
    35    16    40 1   
    36    17    41 1   
    37    17    42 1   
    38    18    19 ar  
    39    18    43 1   
    40    19    44 1   
    41    20    21 1   
    42    20    28 1   
    43    20    30 2   
    44    21    22 1   
    45    21    23 1   
    46    21    45 1   
    47    22    23 1   
    48    22    46 1   
    49    22    47 1   
    50    23    48 1   
    51    23    49 1   
    52    24    25 ar  
    53    24    50 1   
    54    25    51 1   
    55    26    27 1   
    56    28    52 1   
@<TRIPOS>SUBSTRUCTURE
     1 Y6J         1 TEMP              0 ****  ****    0 ROOT
