@<TRIPOS>MOLECULE
Y6L
   62    65     1     0     0
SMALL
No Charge or Current Charge


@<TRIPOS>ATOM
      1 N          136.5730   115.1360    87.5820 n8         1 Y6L      -1.007200
      2 C          138.1380   116.3440    88.9900 c3         1 Y6L      -0.081600
      3 O          134.0190   126.0650    97.4230 os         1 Y6L      -0.298100
      4 C1         136.7990   116.4410    88.2200 c3         1 Y6L       0.222500
      5 C10        131.1520   113.3790    90.6640 ca         1 Y6L      -0.152500
      6 C11        132.2980   114.1560    90.4170 ca         1 Y6L      -0.057500
      7 C12        134.6560   118.3920    90.7800 ca         1 Y6L       0.301500
      8 C13        134.7270   119.7180    91.5450 c          1 Y6L       0.507600
      9 C14        134.3320   121.1670    94.4590 c          1 Y6L       0.618700
     10 C15        134.2380   122.4710    95.2340 ca         1 Y6L      -0.148600
     11 C16        133.4060   123.5370    94.8140 ca         1 Y6L      -0.080000
     12 C17        133.3440   124.7280    95.5540 ca         1 Y6L      -0.176000
     13 C18        134.1130   124.8840    96.7170 ca         1 Y6L       0.137100
     14 C19        135.1080   126.8910    97.0610 cx         1 Y6L       0.092300
     15 C2         136.9060   117.4900    87.0880 c3         1 Y6L      -0.081600
     16 C20        134.9110   127.8370    95.9010 cx         1 Y6L      -0.135400
     17 C21        134.9460   128.3690    97.3150 cx         1 Y6L      -0.135400
     18 C22        134.9420   123.8300    97.1670 ca         1 Y6L       0.104100
     19 C23        136.5420   122.9880    98.8630 c3         1 Y6L       0.143900
     20 C24        135.0000   122.6320    96.4170 ca         1 Y6L      -0.117000
     21 C25        135.7010   118.0330    89.9040 ca         1 Y6L      -0.100000
     22 C3         135.6520   116.8180    89.1870 ca         1 Y6L      -0.072300
     23 C4         134.5150   116.0030    89.4060 ca         1 Y6L      -0.148000
     24 C5         133.4970   116.4070    90.3050 cp         1 Y6L       0.418500
     25 C6         132.2740   115.5700    90.5680 cp         1 Y6L      -0.165500
     26 C7         131.0510   116.1660    90.9870 ca         1 Y6L      -0.057500
     27 C8         129.9070   115.3860    91.2320 ca         1 Y6L      -0.152500
     28 C9         129.9610   113.9960    91.0690 ca         1 Y6L       0.178000
     29 F          128.8620   113.2470    91.3060 f          1 Y6L      -0.179000
     30 N1         133.5740   117.5830    90.9650 nb         1 Y6L      -0.682000
     31 N2         133.6490   119.9710    92.3850 ns         1 Y6L      -0.354500
     32 N3         133.5800   121.0740    93.2960 ns         1 Y6L      -0.367500
     33 O1         135.6710   124.0040    98.3330 os         1 Y6L      -0.330100
     34 O2         135.0270   120.2320    94.8420 o          1 Y6L      -0.575100
     35 O3         135.6540   120.5180    91.4320 o          1 Y6L      -0.582100
     36 H3         136.4430   114.4310    88.3140 hn         1 Y6L       0.403000
     37 H4         135.6700   115.1590    87.0990 hn         1 Y6L       0.403000
     38 H1         138.0610   115.6270    89.8160 hc         1 Y6L       0.045867
     39 H2         138.9490   116.0170    88.3280 hc         1 Y6L       0.045867
     40 H          138.4260   117.3140    89.4120 hc         1 Y6L       0.045867
     41 H11        131.1890   112.2990    90.5460 ha         1 Y6L       0.136000
     42 H12        133.2130   113.6480    90.1230 ha         1 Y6L       0.123500
     43 H15        132.7950   123.4600    93.9180 ha         1 Y6L       0.113000
     44 H16        132.6980   125.5370    95.2240 ha         1 Y6L       0.126000
     45 H17        136.0950   126.4540    97.2210 h1         1 Y6L       0.083700
     46 H6         137.1690   118.4770    87.4840 hc         1 Y6L       0.045867
     47 H7         137.6780   117.2080    86.3610 hc         1 Y6L       0.045867
     48 H5         135.9530   117.5850    86.5530 hc         1 Y6L       0.045867
     49 H18        135.7680   128.0320    95.2620 hc         1 Y6L       0.083700
     50 H19        133.9520   127.8230    95.3890 hc         1 Y6L       0.083700
     51 H20        135.8260   128.9250    97.6280 hc         1 Y6L       0.083700
     52 H21        134.0110   128.7080    97.7550 hc         1 Y6L       0.083700
     53 H22        137.0160   123.3400    99.7880 h1         1 Y6L       0.045367
     54 H23        135.9790   122.0750    99.0960 h1         1 Y6L       0.045367
     55 H24        137.3360   122.7420    98.1470 h1         1 Y6L       0.045367
     56 H25        135.6350   121.8130    96.7450 ha         1 Y6L       0.144000
     57 H26        136.5430   118.7080    89.7850 ha         1 Y6L       0.151000
     58 H8         134.3930   115.0650    88.8770 ha         1 Y6L       0.119000
     59 H9         130.9830   117.2440    91.1130 ha         1 Y6L       0.123500
     60 H10        128.9810   115.8580    91.5470 ha         1 Y6L       0.136000
     61 H13        132.9420   119.2400    92.4620 hn         1 Y6L       0.367500
     62 H14        133.0580   121.8900    92.9920 hn         1 Y6L       0.338500
@<TRIPOS>BOND
     1     1     4 1   
     2     1    36 1   
     3     1    37 1   
     4     2     4 1   
     5     2    38 1   
     6     2    39 1   
     7     2    40 1   
     8     3    13 1   
     9     3    14 1   
    10     4    15 1   
    11     4    22 1   
    12     5     6 ar  
    13     5    28 ar  
    14     5    41 1   
    15     6    25 ar  
    16     6    42 1   
    17     7     8 1   
    18     7    21 ar  
    19     7    30 ar  
    20     8    31 1   
    21     8    35 2   
    22     9    10 1   
    23     9    32 1   
    24     9    34 2   
    25    10    11 ar  
    26    10    20 ar  
    27    11    12 ar  
    28    11    43 1   
    29    12    13 ar  
    30    12    44 1   
    31    13    18 ar  
    32    14    16 1   
    33    14    17 1   
    34    14    45 1   
    35    15    46 1   
    36    15    47 1   
    37    15    48 1   
    38    16    17 1   
    39    16    49 1   
    40    16    50 1   
    41    17    51 1   
    42    17    52 1   
    43    18    20 ar  
    44    18    33 1   
    45    19    33 1   
    46    19    53 1   
    47    19    54 1   
    48    19    55 1   
    49    20    56 1   
    50    21    22 ar  
    51    21    57 1   
    52    22    23 ar  
    53    23    24 ar  
    54    23    58 1   
    55    24    25 1   
    56    24    30 ar  
    57    25    26 ar  
    58    26    27 ar  
    59    26    59 1   
    60    27    28 ar  
    61    27    60 1   
    62    28    29 1   
    63    31    32 1   
    64    31    61 1   
    65    32    62 1   
@<TRIPOS>SUBSTRUCTURE
     1 Y6L         1 TEMP              0 ****  ****    0 ROOT
