@<TRIPOS>MOLECULE
Y6L
   62    65     1     0     0
SMALL
abcg2


@<TRIPOS>ATOM
      1 N          136.3960   114.6480    87.8420 n8         1 Y6L      -1.007200
      2 C          138.0560   115.5470    89.3520 c3         1 Y6L      -0.081600
      3 O          134.9180   126.0690    97.0840 os         1 Y6L      -0.298100
      4 C1         136.8320   115.8880    88.4900 c3         1 Y6L       0.222500
      5 C10        130.6400   114.2000    90.5140 ca         1 Y6L      -0.152500
      6 C11        131.9190   114.7130    90.3410 ca         1 Y6L      -0.057500
      7 C12        135.0430   118.2960    90.8450 ca         1 Y6L       0.301500
      8 C13        135.3180   119.5840    91.5730 c          1 Y6L       0.507600
      9 C14        134.6820   121.2040    94.2510 c          1 Y6L       0.618700
     10 C15        134.7020   122.5220    94.9400 ca         1 Y6L      -0.148600
     11 C16        133.9230   123.6010    94.5370 ca         1 Y6L      -0.080000
     12 C17        133.9700   124.8010    95.2410 ca         1 Y6L      -0.176000
     13 C18        134.7990   124.9370    96.3460 ca         1 Y6L       0.137100
     14 C19        134.1710   127.1990    96.6850 cx         1 Y6L       0.092300
     15 C2         137.2210   116.8740    87.3770 c3         1 Y6L      -0.081600
     16 C20        132.7490   127.3120    97.1360 cx         1 Y6L      -0.135400
     17 C21        133.8340   128.1530    97.7740 cx         1 Y6L      -0.135400
     18 C22        135.5900   123.8410    96.7660 ca         1 Y6L       0.104100
     19 C23        137.2000   122.9880    98.3060 c3         1 Y6L       0.143900
     20 C24        135.5280   122.6500    96.0660 ca         1 Y6L      -0.117000
     21 C25        136.0370   117.7260    90.0690 ca         1 Y6L      -0.100000
     22 C3         135.7640   116.5400    89.3810 ca         1 Y6L      -0.072300
     23 C4         134.4950   116.0010    89.5350 ca         1 Y6L      -0.148000
     24 C5         133.5450   116.6290    90.3530 cp         1 Y6L       0.418500
     25 C6         132.1840   116.0730    90.5330 cp         1 Y6L      -0.165500
     26 C7         131.1300   116.9130    90.9080 ca         1 Y6L      -0.057500
     27 C8         129.8450   116.4190    91.0810 ca         1 Y6L      -0.152500
     28 C9         129.6270   115.0680    90.8780 ca         1 Y6L       0.178000
     29 F          128.3740   114.5760    91.0450 f          1 Y6L      -0.179000
     30 N1         133.8260   117.7670    90.9920 nb         1 Y6L      -0.682000
     31 N2         134.2240   120.0920    92.1930 ns         1 Y6L      -0.354500
     32 N3         134.2810   121.2380    92.9430 ns         1 Y6L      -0.367500
     33 O1         136.3670   124.0570    97.8570 os         1 Y6L      -0.330100
     34 O2         134.9850   120.1550    94.8070 o          1 Y6L      -0.575100
     35 O3         136.4170   120.1220    91.5800 o          1 Y6L      -0.582100
     36 H3         136.1270   113.9540    88.5320 hn         1 Y6L       0.403000
     37 H4         135.5890   114.8100    87.2490 hn         1 Y6L       0.403000
     38 H1         137.7850   114.8310    90.1300 hc         1 Y6L       0.045867
     39 H2         138.8280   115.1030    88.7220 hc         1 Y6L       0.045867
     40 H          138.4660   116.4360    89.8310 hc         1 Y6L       0.045867
     41 H11        130.4310   113.1470    90.3770 ha         1 Y6L       0.136000
     42 H12        132.7170   114.0330    90.0740 ha         1 Y6L       0.123500
     43 H15        133.2440   123.5190    93.6990 ha         1 Y6L       0.113000
     44 H16        133.3470   125.6270    94.9320 ha         1 Y6L       0.126000
     45 H17        134.4510   127.5790    95.7090 h1         1 Y6L       0.083700
     46 H6         137.5930   117.8120    87.7890 hc         1 Y6L       0.045867
     47 H7         138.0020   116.4290    86.7600 hc         1 Y6L       0.045867
     48 H5         136.3580   117.0940    86.7450 hc         1 Y6L       0.045867
     49 H18        132.0410   127.7860    96.4690 hc         1 Y6L       0.083700
     50 H19        132.3580   126.4890    97.7190 hc         1 Y6L       0.083700
     51 H20        133.8750   129.2110    97.5520 hc         1 Y6L       0.083700
     52 H21        134.1450   127.8780    98.7740 hc         1 Y6L       0.083700
     53 H22        137.7400   123.3750    99.1660 h1         1 Y6L       0.045367
     54 H23        136.6020   122.1240    98.6040 h1         1 Y6L       0.045367
     55 H24        137.9080   122.6920    97.5280 h1         1 Y6L       0.045367
     56 H25        136.1180   121.8000    96.3720 ha         1 Y6L       0.144000
     57 H26        136.9970   118.2160    90.0050 ha         1 Y6L       0.151000
     58 H8         134.2240   115.1000    89.0080 ha         1 Y6L       0.119000
     59 H9         131.3210   117.9660    91.0580 ha         1 Y6L       0.123500
     60 H10        129.0240   117.0650    91.3620 ha         1 Y6L       0.136000
     61 H13        133.3670   119.5550    92.1870 hn         1 Y6L       0.367500
     62 H14        134.2310   122.1090    92.4380 hn         1 Y6L       0.338500
@<TRIPOS>BOND
     1     1     4 1   
     2     1    36 1   
     3     1    37 1   
     4     2     4 1   
     5     2    38 1   
     6     2    39 1   
     7     2    40 1   
     8     3    13 1   
     9     3    14 1   
    10     4    15 1   
    11     4    22 1   
    12     5     6 ar  
    13     5    28 ar  
    14     5    41 1   
    15     6    25 ar  
    16     6    42 1   
    17     7     8 1   
    18     7    21 ar  
    19     7    30 ar  
    20     8    31 1   
    21     8    35 2   
    22     9    10 1   
    23     9    32 1   
    24     9    34 2   
    25    10    11 ar  
    26    10    20 ar  
    27    11    12 ar  
    28    11    43 1   
    29    12    13 ar  
    30    12    44 1   
    31    13    18 ar  
    32    14    16 1   
    33    14    17 1   
    34    14    45 1   
    35    15    46 1   
    36    15    47 1   
    37    15    48 1   
    38    16    17 1   
    39    16    49 1   
    40    16    50 1   
    41    17    51 1   
    42    17    52 1   
    43    18    20 ar  
    44    18    33 1   
    45    19    33 1   
    46    19    53 1   
    47    19    54 1   
    48    19    55 1   
    49    20    56 1   
    50    21    22 ar  
    51    21    57 1   
    52    22    23 ar  
    53    23    24 ar  
    54    23    58 1   
    55    24    25 1   
    56    24    30 ar  
    57    25    26 ar  
    58    26    27 ar  
    59    26    59 1   
    60    27    28 ar  
    61    27    60 1   
    62    28    29 1   
    63    31    32 1   
    64    31    61 1   
    65    32    62 1   
@<TRIPOS>SUBSTRUCTURE
     1 Y6L         1 TEMP              0 ****  ****    0 ROOT
