@<TRIPOS>MOLECULE
Y6M
   23    24     1     0     0
SMALL
No Charge or Current Charge


@<TRIPOS>ATOM
      1 C01          2.4010    -0.9680    -0.4200 c6         1 Y6M      -0.082400
      2 C02          1.2000    -1.7940     0.0980 c6         1 Y6M      -0.015100
      3 C03         -0.0910    -0.9660     0.0920 ca         1 Y6M      -0.185300
      4 C04         -1.3430    -1.6090     0.0980 ca         1 Y6M      -0.029000
      5 C05         -2.5220    -0.8460     0.0870 ca         1 Y6M      -0.250000
      6 C06         -2.4530     0.5540     0.0710 ca         1 Y6M       0.176100
      7 C07         -1.2110     1.1990     0.0690 ca         1 Y6M      -0.220000
      8 C08         -0.0320     0.4440     0.0850 ca         1 Y6M       0.358000
      9 N09          1.2020     1.0920     0.0870 nu         1 Y6M      -0.977200
     10 C10          2.4550     0.4100     0.2760 c6         1 Y6M       0.452500
     11 O11          3.4320     1.2280    -0.3110 oh         1 Y6M      -0.646000
     12 O12         -3.5950     1.2910     0.0580 oh         1 Y6M      -0.536100
     13 H01          3.3390    -1.5130    -0.2490 hc         1 Y6M       0.064700
     14 H01A         2.3090    -0.8300    -1.5060 hc         1 Y6M       0.064700
     15 H02          1.0800    -2.6980    -0.5160 hc         1 Y6M       0.046700
     16 H02A         1.4040    -2.1360     1.1220 hc         1 Y6M       0.046700
     17 H04         -1.4010    -2.6960     0.1090 ha         1 Y6M       0.107000
     18 H05         -3.4850    -1.3510     0.0890 ha         1 Y6M       0.114000
     19 H07         -1.1650     2.2830     0.0600 ha         1 Y6M       0.127000
     20 HN09         1.2000     2.1030    -0.0150 hn         1 Y6M       0.463000
     21 HO12        -4.3560     0.6730     0.0620 ho         1 Y6M       0.464000
     22 HC10         2.6670     0.2760     1.3480 h2         1 Y6M       0.014700
     23 HO11         3.5680     1.9560     0.3280 ho         1 Y6M       0.444000
@<TRIPOS>BOND
     1     1     2 1   
     2     1    10 1   
     3     1    13 1   
     4     1    14 1   
     5     2     3 1   
     6     2    15 1   
     7     2    16 1   
     8     3     4 ar  
     9     3     8 ar  
    10     4     5 ar  
    11     4    17 1   
    12     5     6 ar  
    13     5    18 1   
    14     6     7 ar  
    15     6    12 1   
    16     7     8 ar  
    17     7    19 1   
    18     8     9 1   
    19     9    10 1   
    20     9    20 1   
    21    10    11 1   
    22    10    22 1   
    23    11    23 1   
    24    12    21 1   
@<TRIPOS>SUBSTRUCTURE
     1 Y6M         1 TEMP              0 ****  ****    0 ROOT
