@<TRIPOS>MOLECULE
Y6M
   23    24     1     0     0
SMALL
abcg2


@<TRIPOS>ATOM
      1 C01          2.3690    -0.9440    -0.4290 c6         1 Y6M      -0.082400
      2 C02          1.2020    -1.7520     0.1220 c6         1 Y6M      -0.015100
      3 C03         -0.0800    -0.9660     0.0730 ca         1 Y6M      -0.185300
      4 C04         -1.3210    -1.5850     0.0820 ca         1 Y6M      -0.029000
      5 C05         -2.5130    -0.8730     0.0780 ca         1 Y6M      -0.250000
      6 C06         -2.4580     0.5190     0.0590 ca         1 Y6M       0.176100
      7 C07         -1.2300     1.1680     0.0390 ca         1 Y6M      -0.220000
      8 C08         -0.0380     0.4380     0.0400 ca         1 Y6M       0.358000
      9 N09          1.1660     1.1080    -0.0240 nu         1 Y6M      -0.977200
     10 C10          2.4200     0.4240     0.2240 c6         1 Y6M       0.452500
     11 O11          3.4760     1.1540    -0.3340 oh         1 Y6M      -0.646000
     12 O12         -3.5680     1.2890     0.0560 oh         1 Y6M      -0.536100
     13 H01          3.3100    -1.4640    -0.2460 hc         1 Y6M       0.064700
     14 H01A         2.2640    -0.8160    -1.5100 hc         1 Y6M       0.064700
     15 H02          1.0990    -2.6830    -0.4380 hc         1 Y6M       0.046700
     16 H02A         1.4230    -2.0430     1.1540 hc         1 Y6M       0.046700
     17 H04         -1.3620    -2.6680     0.1010 ha         1 Y6M       0.107000
     18 H05         -3.4620    -1.3940     0.0880 ha         1 Y6M       0.114000
     19 H07         -1.1980     2.2510     0.0150 ha         1 Y6M       0.127000
     20 HN09         1.1350     2.0610     0.3070 hn         1 Y6M       0.463000
     21 HO12        -4.3550     0.7350     0.0780 ho         1 Y6M       0.464000
     22 HC10         2.5850     0.2970     1.3050 h2         1 Y6M       0.014700
     23 HO11         3.7380     1.8460     0.2810 ho         1 Y6M       0.444000
@<TRIPOS>BOND
     1     1     2 1   
     2     1    10 1   
     3     1    13 1   
     4     1    14 1   
     5     2     3 1   
     6     2    15 1   
     7     2    16 1   
     8     3     4 ar  
     9     3     8 ar  
    10     4     5 ar  
    11     4    17 1   
    12     5     6 ar  
    13     5    18 1   
    14     6     7 ar  
    15     6    12 1   
    16     7     8 ar  
    17     7    19 1   
    18     8     9 1   
    19     9    10 1   
    20     9    20 1   
    21    10    11 1   
    22    10    22 1   
    23    11    23 1   
    24    12    21 1   
@<TRIPOS>SUBSTRUCTURE
     1 Y6M         1 TEMP              0 ****  ****    0 ROOT
