@<TRIPOS>MOLECULE
Y6P
   28    30     1     0     0
SMALL
No Charge or Current Charge


@<TRIPOS>ATOM
      1 C10        -48.0090    -3.6510    27.5430 cc         1 Y6P      -0.063800
      2 N12        -48.4220    -5.7990    27.7820 na         1 Y6P      -0.029200
      3 C15        -49.4700    -0.7420    27.3250 c          1 Y6P       0.726200
      4 C01        -43.6760    -2.4800    26.2610 ca         1 Y6P      -0.164000
      5 C02        -44.9230    -3.0220    26.6320 ca         1 Y6P      -0.073000
      6 C03        -46.0170    -2.1490    26.7850 ca         1 Y6P      -0.088800
      7 C04        -45.8540    -0.7980    26.6350 ca         1 Y6P      -0.065200
      8 C05        -44.6220    -0.2240    26.2700 ca         1 Y6P      -0.096300
      9 C06        -43.5270    -1.0900    26.0730 ca         1 Y6P      -0.122000
     10 C07        -47.3940    -2.3810    27.1890 cc         1 Y6P      -0.089400
     11 C08        -48.0130    -1.1090    27.1990 cd         1 Y6P      -0.071300
     12 C11        -47.5370    -4.8860    27.1950 cd         1 Y6P      -0.210000
     13 C14        -49.1410    -3.8930    28.3510 cc         1 Y6P       0.286900
     14 N09        -47.0270    -0.1300    26.9180 na         1 Y6P      -0.194700
     15 N13        -49.4230    -5.1740    28.5190 nd         1 Y6P      -0.568800
     16 O16        -49.7380     0.4510    27.3910 o          1 Y6P      -0.707500
     17 O17        -50.3430    -1.5900    27.2330 o          1 Y6P      -0.707500
     18 H1         -48.3720    -6.8160    27.7090 hn         1 Y6P       0.347000
     19 H2         -42.8190    -3.1380    26.1310 ha         1 Y6P       0.087000
     20 H3         -45.0010    -4.0860    26.8100 ha         1 Y6P       0.100000
     21 H4         -42.5560    -0.6880    25.7910 ha         1 Y6P       0.086000
     22 H5         -46.7170    -5.2020    26.5660 h4         1 Y6P       0.139000
     23 H6         -49.7420    -3.1760    28.8910 h4         1 Y6P       0.055100
     24 H7         -45.1570     1.6660    25.3410 hc         1 Y6P       0.031033
     25 H8         -44.6770     1.8060    27.0430 hc         1 Y6P       0.031033
     26 H9         -43.4510     1.5530    25.7930 hc         1 Y6P       0.031033
     27 H10        -47.1920     0.8690    26.8470 hn         1 Y6P       0.367000
     28 C18        -44.4670     1.2820    26.1020 c3         1 Y6P      -0.034800
@<TRIPOS>BOND
     1     1    10 1   
     2     1    12 2   
     3     1    13 1   
     4     2    12 1   
     5     2    15 1   
     6     2    18 1   
     7     3    11 1   
     8     3    16 1   
     9     3    17 1   
    10     4     5 ar  
    11     4     9 ar  
    12     4    19 1   
    13     5     6 ar  
    14     5    20 1   
    15     6     7 ar  
    16     6    10 1   
    17     7     8 ar  
    18     7    14 1   
    19     8     9 ar  
    20     8    28 1   
    21     9    21 1   
    22    10    11 2   
    23    11    14 1   
    24    12    22 1   
    25    13    15 2   
    26    13    23 1   
    27    14    27 1   
    28    24    28 1   
    29    25    28 1   
    30    26    28 1   
@<TRIPOS>SUBSTRUCTURE
     1 Y6P         1 TEMP              0 ****  ****    0 ROOT
