@<TRIPOS>MOLECULE
Y6P
   28    30     1     0     0
SMALL
abcg2


@<TRIPOS>ATOM
      1 C10        -48.0070    -3.6470    27.5350 cc         1 Y6P      -0.063800
      2 N12        -48.4160    -5.7980    27.5610 na         1 Y6P      -0.029200
      3 C15        -49.4340    -0.6100    27.3380 c          1 Y6P       0.726200
      4 C01        -43.7040    -2.4680    26.4910 ca         1 Y6P      -0.164000
      5 C02        -44.9300    -3.0060    26.8220 ca         1 Y6P      -0.073000
      6 C03        -46.0430    -2.1550    26.8850 ca         1 Y6P      -0.088800
      7 C04        -45.8640    -0.7820    26.6220 ca         1 Y6P      -0.065200
      8 C05        -44.6270    -0.2190    26.2790 ca         1 Y6P      -0.096300
      9 C06        -43.5590    -1.0950    26.2200 ca         1 Y6P      -0.122000
     10 C07        -47.4290    -2.3490    27.2090 cc         1 Y6P      -0.089400
     11 C08        -48.0210    -1.1030    27.1380 cd         1 Y6P      -0.071300
     12 C11        -47.7060    -4.8520    26.9260 cd         1 Y6P      -0.210000
     13 C14        -48.9250    -4.0140    28.5430 cc         1 Y6P       0.286900
     14 N09        -47.0710    -0.1840    26.7830 na         1 Y6P      -0.194700
     15 N13        -49.1610    -5.3120    28.5470 nd         1 Y6P      -0.568800
     16 O16        -49.6020     0.6050    27.1080 o          1 Y6P      -0.707500
     17 O17        -50.2820    -1.4390    27.7060 o          1 Y6P      -0.707500
     18 H1         -48.4290    -6.7840    27.3590 hn         1 Y6P       0.347000
     19 H2         -42.8320    -3.1080    26.4420 ha         1 Y6P       0.087000
     20 H3         -45.0230    -4.0630    27.0370 ha         1 Y6P       0.100000
     21 H4         -42.5790    -0.7100    25.9630 ha         1 Y6P       0.086000
     22 H5         -47.0620    -5.0880    26.0950 h4         1 Y6P       0.139000
     23 H6         -49.4110    -3.3690    29.2560 h4         1 Y6P       0.055100
     24 H7         -45.0900     1.5520    25.1420 hc         1 Y6P       0.031033
     25 H8         -44.8340     1.8460    26.8530 hc         1 Y6P       0.031033
     26 H9         -43.4580     1.5170    25.8030 hc         1 Y6P       0.031033
     27 H10        -47.2920     0.7900    26.6570 hn         1 Y6P       0.367000
     28 C18        -44.4930     1.2480    26.0050 c3         1 Y6P      -0.034800
@<TRIPOS>BOND
     1     1    10 1   
     2     1    12 2   
     3     1    13 1   
     4     2    12 1   
     5     2    15 1   
     6     2    18 1   
     7     3    11 1   
     8     3    16 1   
     9     3    17 1   
    10     4     5 ar  
    11     4     9 ar  
    12     4    19 1   
    13     5     6 ar  
    14     5    20 1   
    15     6     7 ar  
    16     6    10 1   
    17     7     8 ar  
    18     7    14 1   
    19     8     9 ar  
    20     8    28 1   
    21     9    21 1   
    22    10    11 2   
    23    11    14 1   
    24    12    22 1   
    25    13    15 2   
    26    13    23 1   
    27    14    27 1   
    28    24    28 1   
    29    25    28 1   
    30    26    28 1   
@<TRIPOS>SUBSTRUCTURE
     1 Y6P         1 TEMP              0 ****  ****    0 ROOT
