@<TRIPOS>MOLECULE
Y6S
   18    19     1     0     0
SMALL
No Charge or Current Charge


@<TRIPOS>ATOM
      1 C10         29.7680   -39.5280    -6.4230 c          1 Y6S       0.728200
      2 C01         23.8510   -38.4200    -7.6690 ca         1 Y6S       0.198000
      3 C02         25.1070   -37.7950    -7.5190 ca         1 Y6S      -0.092000
      4 C03         26.2050   -38.6100    -7.2070 ca         1 Y6S      -0.079200
      5 C04         26.0670   -39.9600    -7.0530 ca         1 Y6S      -0.083800
      6 C05         24.8370   -40.6140    -7.1950 ca         1 Y6S      -0.074000
      7 C06         23.7130   -39.8200    -7.5090 ca         1 Y6S      -0.140000
      8 C08         28.3060   -39.4040    -6.7110 cc         1 Y6S      -0.083300
      9 C09         27.3840   -40.4500    -6.7440 cd         1 Y6S      -0.268200
     10 N07         27.5320   -38.2570    -7.0070 na         1 Y6S      -0.193700
     11 O11         30.4440   -38.5080    -6.4330 o          1 Y6S      -0.707500
     12 O12         30.2380   -40.6330    -6.1890 o          1 Y6S      -0.707500
     13 H1          25.2160   -36.7210    -7.6410 ha         1 Y6S       0.114000
     14 H2          24.7510   -41.6910    -7.0680 ha         1 Y6S       0.103000
     15 H3          22.7380   -40.2830    -7.6290 ha         1 Y6S       0.103000
     16 H4          27.6350   -41.4920    -6.5590 ha         1 Y6S       0.208000
     17 H5          27.9030   -37.3140    -7.0640 hn         1 Y6S       0.364000
     18 I13         22.1100   -37.2240    -8.1510 i          1 Y6S      -0.389000
@<TRIPOS>BOND
     1     1     8 1   
     2     1    11 1   
     3     1    12 1   
     4     2     3 ar  
     5     2     7 ar  
     6     2    18 1   
     7     3     4 ar  
     8     3    13 1   
     9     4     5 ar  
    10     4    10 1   
    11     5     6 ar  
    12     5     9 1   
    13     6     7 ar  
    14     6    14 1   
    15     7    15 1   
    16     8     9 2   
    17     8    10 1   
    18     9    16 1   
    19    10    17 1   
@<TRIPOS>SUBSTRUCTURE
     1 Y6S         1 TEMP              0 ****  ****    0 ROOT
