@<TRIPOS>MOLECULE
Y6S
   18    19     1     0     0
SMALL
bcc


@<TRIPOS>ATOM
      1 C10         29.7150   -39.4230    -6.4450 c          1 Y6S       0.938800
      2 C01         23.9210   -38.4080    -7.6570 ca         1 Y6S       0.060900
      3 C02         25.1510   -37.8020    -7.5100 ca         1 Y6S      -0.110000
      4 C03         26.2240   -38.6380    -7.2010 ca         1 Y6S      -0.079200
      5 C04         26.0780   -40.0380    -7.0420 ca         1 Y6S      -0.083800
      6 C05         24.8080   -40.6040    -7.2010 ca         1 Y6S      -0.092000
      7 C06         23.7340   -39.7920    -7.5080 ca         1 Y6S      -0.158000
      8 C08         28.2330   -39.4840    -6.7150 cc         1 Y6S      -0.083300
      9 C09         27.3710   -40.5500    -6.7340 cd         1 Y6S      -0.218200
     10 N07         27.5330   -38.3420    -6.9960 na         1 Y6S      -0.143400
     11 O11         30.2170   -38.2830    -6.4890 o          1 Y6S      -0.812800
     12 O12         30.2750   -40.5070    -6.2090 o          1 Y6S      -0.812800
     13 H1          25.2890   -36.7350    -7.6270 ha         1 Y6S       0.132000
     14 H2          24.6600   -41.6700    -7.0860 ha         1 Y6S       0.121000
     15 H3          22.7510   -40.2270    -7.6310 ha         1 Y6S       0.121000
     16 H4          27.6320   -41.5800    -6.5480 ha         1 Y6S       0.158000
     17 H5          27.9610   -37.4310    -7.0460 hn         1 Y6S       0.313700
     18 I13         22.2510   -37.2110    -8.1260 i          1 Y6S      -0.251900
@<TRIPOS>BOND
     1     1     8 1   
     2     1    11 1   
     3     1    12 1   
     4     2     3 ar  
     5     2     7 ar  
     6     2    18 1   
     7     3     4 ar  
     8     3    13 1   
     9     4     5 ar  
    10     4    10 1   
    11     5     6 ar  
    12     5     9 1   
    13     6     7 ar  
    14     6    14 1   
    15     7    15 1   
    16     8     9 2   
    17     8    10 1   
    18     9    16 1   
    19    10    17 1   
@<TRIPOS>SUBSTRUCTURE
     1 Y6S         1 TEMP              0 ****  ****    0 ROOT
