@<TRIPOS>MOLECULE
Y6U
   53    55     1     0     0
SMALL
abcg2


@<TRIPOS>ATOM
      1 C2         -25.5570    10.2230    29.4650 cc         1 Y6U       0.690800
      2 C9         -27.0290    11.9200    29.1950 cd         1 Y6U       0.204400
      3 C12        -25.3360    11.7860    32.7200 ca         1 Y6U      -0.123600
      4 C4         -24.6630    12.4150    28.7570 c          1 Y6U       0.616600
      5 C5         -28.2500    12.6370    29.2010 cd         1 Y6U      -0.187000
      6 C6         -27.9340    13.9480    28.9020 cc         1 Y6U      -0.157000
      7 C23        -28.8640     8.3570    36.3490 c          1 Y6U       0.708000
      8 C26        -26.7840     7.1860    32.5100 c          1 Y6U       0.711000
      9 C8         -26.0150    12.8320    28.8560 cc         1 Y6U      -0.327600
     10 C14        -24.1940    12.5090    32.3700 ca         1 Y6U      -0.072500
     11 C13        -26.5840    12.3850    32.5570 ca         1 Y6U      -0.072500
     12 C15        -26.6850    13.6720    32.0380 ca         1 Y6U      -0.119000
     13 C16        -24.3030    13.7790    31.8310 ca         1 Y6U      -0.119000
     14 C17        -25.1690    10.4170    33.3010 c          1 Y6U       0.579700
     15 C20        -26.1080     8.1550    33.5110 c3         1 Y6U      -0.041300
     16 C21        -26.7270     8.0590    34.9140 c3         1 Y6U      -0.039400
     17 C22        -28.2020     8.4340    34.9590 c3         1 Y6U      -0.193400
     18 C30        -25.0260    15.8280    29.6040 c3         1 Y6U      -0.094400
     19 C31        -25.6480    15.7470    31.0090 c3         1 Y6U      -0.016100
     20 C32        -25.5530    14.3790    31.6410 ca         1 Y6U      -0.089300
     21 N1         -26.8060    10.6070    29.5010 nd         1 Y6U      -0.639100
     22 N11        -25.2270     8.9360    29.7600 nv         1 Y6U      -1.025200
     23 N19        -26.1250     9.5200    33.0090 ns         1 Y6U      -0.444900
     24 N3         -24.5330    11.0620    29.0930 ns         1 Y6U      -0.446400
     25 N7         -26.5930    14.0780    28.6910 na         1 Y6U       0.035000
     26 O10        -23.6650    13.0650    28.4280 o          1 Y6U      -0.620000
     27 O18        -24.1930    10.1460    34.0140 o          1 Y6U      -0.663100
     28 O24        -29.9800     8.9330    36.4640 o          1 Y6U      -0.768000
     29 O25        -28.2730     7.7180    37.2570 o          1 Y6U      -0.768000
     30 H1         -29.2300    12.2510    29.4260 ha         1 Y6U       0.148000
     31 H2         -28.5730    14.8130    28.8350 h4         1 Y6U       0.127000
     32 H3         -23.2210    12.0570    32.5090 ha         1 Y6U       0.132500
     33 H4         -27.4830    11.8540    32.8410 ha         1 Y6U       0.132500
     34 H5         -27.6620    14.1180    31.9120 ha         1 Y6U       0.100000
     35 H6         -23.4060    14.3080    31.5360 ha         1 Y6U       0.100000
     36 H7         -25.0630     7.8450    33.5830 h1         1 Y6U       0.037700
     37 H8         -26.5920     7.0410    35.2760 hc         1 Y6U       0.043200
     38 H9         -26.1600     8.7120    35.5810 hc         1 Y6U       0.043200
     39 H10        -28.3550     9.4450    34.5720 hc         1 Y6U       0.025700
     40 H11        -28.7750     7.7710    34.3020 hc         1 Y6U       0.025700
     41 H12        -25.3380    15.2860    27.5420 h1         1 Y6U       0.043700
     42 H13        -26.7220    16.0780    28.2910 h1         1 Y6U       0.043700
     43 H14        -24.0950    15.2620    29.5840 hc         1 Y6U       0.052700
     44 H15        -24.7690    16.8670    29.3820 hc         1 Y6U       0.052700
     45 H16        -25.1220    16.4620    31.6480 hc         1 Y6U       0.034200
     46 H17        -26.6930    16.0660    30.9770 hc         1 Y6U       0.034200
     47 H18        -25.9280     8.4420    30.3190 hn         1 Y6U       0.512500
     48 H19        -24.2710     8.7550    30.0290 hn         1 Y6U       0.512500
     49 H20        -26.7880     9.7170    32.2740 hn         1 Y6U       0.337500
     50 H21        -23.5880    10.7020    29.0620 hn         1 Y6U       0.313500
     51 C29        -25.9250    15.3540    28.4590 c3         1 Y6U       0.092600
     52 O27        -27.2210     7.6680    31.4280 o          1 Y6U      -0.732500
     53 O28        -26.8290     5.9870    32.8560 o          1 Y6U      -0.732500
@<TRIPOS>BOND
     1     1    21 2   
     2     1    22 1   
     3     1    24 1   
     4     2     5 1   
     5     2     9 2   
     6     2    21 1   
     7     3    10 ar  
     8     3    11 ar  
     9     3    14 1   
    10     4     9 1   
    11     4    24 1   
    12     4    26 2   
    13     5     6 2   
    14     5    30 1   
    15     6    25 1   
    16     6    31 1   
    17     7    17 1   
    18     7    28 1   
    19     7    29 1   
    20     8    15 1   
    21     8    52 1   
    22     8    53 1   
    23     9    25 1   
    24    10    13 ar  
    25    10    32 1   
    26    11    12 ar  
    27    11    33 1   
    28    12    20 ar  
    29    12    34 1   
    30    13    20 ar  
    31    13    35 1   
    32    14    23 1   
    33    14    27 2   
    34    15    16 1   
    35    15    23 1   
    36    15    36 1   
    37    16    17 1   
    38    16    37 1   
    39    16    38 1   
    40    17    39 1   
    41    17    40 1   
    42    18    19 1   
    43    18    43 1   
    44    18    44 1   
    45    18    51 1   
    46    19    20 1   
    47    19    45 1   
    48    19    46 1   
    49    22    47 1   
    50    22    48 1   
    51    23    49 1   
    52    24    50 1   
    53    25    51 1   
    54    41    51 1   
    55    42    51 1   
@<TRIPOS>SUBSTRUCTURE
     1 Y6U         1 TEMP              0 ****  ****    0 ROOT
