@<TRIPOS>MOLECULE
Y6U
   53    55     1     0     0
SMALL
No Charge or Current Charge


@<TRIPOS>ATOM
      1 C2         -25.6080    10.2140    29.3540 cc         1 Y6U       0.690800
      2 C9         -27.0660    11.9170    29.1200 cd         1 Y6U       0.204400
      3 C12        -25.2360    11.8300    32.7900 ca         1 Y6U      -0.123600
      4 C4         -24.6520    12.3040    28.7590 c          1 Y6U       0.616600
      5 C5         -28.2800    12.6110    29.0980 cd         1 Y6U      -0.187000
      6 C6         -28.0170    13.9240    28.8110 cc         1 Y6U      -0.157000
      7 C23        -28.8340     8.3370    36.3910 c          1 Y6U       0.708000
      8 C26        -26.7210     7.1730    32.4890 c          1 Y6U       0.711000
      9 C8         -26.0350    12.7630    28.8300 cc         1 Y6U      -0.327600
     10 C14        -24.1200    12.6680    32.5860 ca         1 Y6U      -0.072500
     11 C13        -26.5230    12.3280    32.4800 ca         1 Y6U      -0.072500
     12 C15        -26.6790    13.6200    31.9490 ca         1 Y6U      -0.119000
     13 C16        -24.2780    13.9480    32.0310 ca         1 Y6U      -0.119000
     14 C17        -25.0310    10.4340    33.3350 c          1 Y6U       0.579700
     15 C20        -26.0870     8.1270    33.5580 c3         1 Y6U      -0.041300
     16 C21        -26.7760     8.0310    34.9470 c3         1 Y6U      -0.039400
     17 C22        -28.2510     8.5120    34.9770 c3         1 Y6U      -0.193400
     18 C30        -25.0620    15.8470    29.6060 c3         1 Y6U      -0.094400
     19 C31        -25.7100    15.7900    31.0150 c3         1 Y6U      -0.016100
     20 C32        -25.5560    14.4260    31.6870 ca         1 Y6U      -0.089300
     21 N1         -26.8690    10.5720    29.3980 nd         1 Y6U      -0.639100
     22 N11        -25.3330     8.9520    29.6390 nv         1 Y6U      -1.025200
     23 N19        -26.0400     9.5320    33.0790 ns         1 Y6U      -0.444900
     24 N3         -24.5490    10.9910    29.0460 ns         1 Y6U      -0.446400
     25 N7         -26.6250    14.0280    28.6740 na         1 Y6U       0.035000
     26 O10        -23.6830    12.9840    28.4630 o          1 Y6U      -0.620000
     27 O18        -24.0310    10.1230    33.9720 o          1 Y6U      -0.663100
     28 O24        -28.7040     9.2530    37.1880 o          1 Y6U      -0.768000
     29 O25        -29.3610     7.2720    36.6720 o          1 Y6U      -0.768000
     30 H1         -29.2580    12.1820    29.2880 ha         1 Y6U       0.148000
     31 H2         -28.6800    14.7740    28.7170 h4         1 Y6U       0.127000
     32 H3         -23.1200    12.3140    32.8280 ha         1 Y6U       0.132500
     33 H4         -27.4130    11.7270    32.6500 ha         1 Y6U       0.132500
     34 H5         -27.6750    13.9800    31.7070 ha         1 Y6U       0.100000
     35 H6         -23.4000    14.5640    31.8530 ha         1 Y6U       0.100000
     36 H7         -25.0520     7.7820    33.6800 h1         1 Y6U       0.037700
     37 H8         -26.7290     6.9910    35.2960 hc         1 Y6U       0.043200
     38 H9         -26.1960     8.6200    35.6680 hc         1 Y6U       0.043200
     39 H10        -28.2350     9.5740    34.7050 hc         1 Y6U       0.025700
     40 H11        -28.7940     7.8810    34.2630 hc         1 Y6U       0.025700
     41 H12        -25.2880    15.1900    27.5440 h1         1 Y6U       0.043700
     42 H13        -26.6820    16.0590    28.1890 h1         1 Y6U       0.043700
     43 H14        -24.1020    15.3220    29.6260 hc         1 Y6U       0.052700
     44 H15        -24.8210    16.8930    29.3780 hc         1 Y6U       0.052700
     45 H16        -25.2300    16.5470    31.6470 hc         1 Y6U       0.034200
     46 H17        -26.7650    16.0820    30.9450 hc         1 Y6U       0.034200
     47 H18        -26.0860     8.4880    30.1570 hn         1 Y6U       0.512500
     48 H19        -24.4070     8.7460    29.9830 hn         1 Y6U       0.512500
     49 H20        -26.7910     9.8470    32.4770 hn         1 Y6U       0.337500
     50 H21        -23.6280    10.5900    29.0020 hn         1 Y6U       0.313500
     51 C29        -25.9220    15.3050    28.4310 c3         1 Y6U       0.092600
     52 O27        -27.1040     7.6500    31.4280 o          1 Y6U      -0.732500
     53 O28        -26.7390     5.9730    32.7230 o          1 Y6U      -0.732500
@<TRIPOS>BOND
     1     1    21 2   
     2     1    22 1   
     3     1    24 1   
     4     2     5 1   
     5     2     9 2   
     6     2    21 1   
     7     3    10 ar  
     8     3    11 ar  
     9     3    14 1   
    10     4     9 1   
    11     4    24 1   
    12     4    26 2   
    13     5     6 2   
    14     5    30 1   
    15     6    25 1   
    16     6    31 1   
    17     7    17 1   
    18     7    28 1   
    19     7    29 1   
    20     8    15 1   
    21     8    52 1   
    22     8    53 1   
    23     9    25 1   
    24    10    13 ar  
    25    10    32 1   
    26    11    12 ar  
    27    11    33 1   
    28    12    20 ar  
    29    12    34 1   
    30    13    20 ar  
    31    13    35 1   
    32    14    23 1   
    33    14    27 2   
    34    15    16 1   
    35    15    23 1   
    36    15    36 1   
    37    16    17 1   
    38    16    37 1   
    39    16    38 1   
    40    17    39 1   
    41    17    40 1   
    42    18    19 1   
    43    18    43 1   
    44    18    44 1   
    45    18    51 1   
    46    19    20 1   
    47    19    45 1   
    48    19    46 1   
    49    22    47 1   
    50    22    48 1   
    51    23    49 1   
    52    24    50 1   
    53    25    51 1   
    54    41    51 1   
    55    42    51 1   
@<TRIPOS>SUBSTRUCTURE
     1 Y6U         1 TEMP              0 ****  ****    0 ROOT
