@<TRIPOS>MOLECULE
Y6V
   39    42     1     0     0
SMALL
No Charge or Current Charge


@<TRIPOS>ATOM
      1 O1           0.1060    -3.7230    18.3750 o          1 Y6V      -0.587100
      2 C1          -0.7730    -3.3550    19.1470 c          1 Y6V       0.626700
      3 N1          -1.0260    -1.9750    19.3590 n          1 Y6V      -0.392800
      4 C2          -0.1360    -0.9540    18.7520 c3         1 Y6V       0.171300
      5 C3           0.2360     0.1150    19.7460 cc         1 Y6V      -0.234300
      6 C4          -0.1920     1.4190    19.7880 cd         1 Y6V      -0.124000
      7 C5           0.3490     2.1580    20.8730 cd         1 Y6V      -0.134000
      8 C6           1.1930     1.4240    21.6670 cc         1 Y6V      -0.239000
      9 S1           1.3380    -0.2290    21.0770 ss         1 Y6V       0.207000
     10 C7          -2.2360    -1.4470    19.9980 cx         1 Y6V       0.043700
     11 C8          -3.6320    -1.9230    19.6630 cx         1 Y6V      -0.132900
     12 C9          -3.2030    -0.5290    19.2840 cx         1 Y6V      -0.132900
     13 C10         -1.5790    -4.3870    19.9090 ca         1 Y6V      -0.142600
     14 C11         -1.9350    -5.5940    19.2660 ca         1 Y6V      -0.054000
     15 C12         -2.6650    -6.5850    19.9470 ca         1 Y6V      -0.139000
     16 C13         -3.0410    -6.3780    21.2820 ca         1 Y6V      -0.060000
     17 N2          -3.7220    -7.3700    22.0200 ns         1 Y6V      -0.144000
     18 C14         -4.1170    -7.2230    23.3310 c          1 Y6V       0.543000
     19 O2          -4.3450    -8.1720    24.0740 o          1 Y6V      -0.522000
     20 C15         -4.1570    -5.7490    23.7800 c6         1 Y6V       0.072600
     21 O3          -3.0180    -4.9980    23.2700 os         1 Y6V      -0.324100
     22 C16         -2.6750    -5.1870    21.9440 ca         1 Y6V       0.065100
     23 C17         -1.9310    -4.2070    21.2690 ca         1 Y6V      -0.067000
     24 H1           0.7890    -1.4120    18.3810 h1         1 Y6V       0.071700
     25 H2          -0.6440    -0.4990    17.8910 h1         1 Y6V       0.071700
     26 H3          -0.8810     1.8440    19.0630 ha         1 Y6V       0.132000
     27 H4           0.1150     3.2030    21.0570 ha         1 Y6V       0.134000
     28 H5           1.7380     1.7260    22.5520 h4         1 Y6V       0.151000
     29 H6          -2.0030    -1.2080    21.0370 h1         1 Y6V       0.087700
     30 H7          -4.3350    -2.0360    20.4850 hc         1 Y6V       0.078700
     31 H8          -3.7470    -2.6490    18.8630 hc         1 Y6V       0.078700
     32 H9          -3.0370    -0.3240    18.2300 hc         1 Y6V       0.078700
     33 H10         -3.6150     0.3030    19.8500 hc         1 Y6V       0.078700
     34 H11         -1.6490    -5.7620    18.2290 ha         1 Y6V       0.135000
     35 H12         -2.9280    -7.5100    19.4380 ha         1 Y6V       0.124000
     36 H13         -3.7250    -8.3070    21.6380 hn         1 Y6V       0.167000
     37 H14         -4.1730    -5.7090    24.8770 h1         1 Y6V       0.084700
     38 H15         -5.0840    -5.3120    23.3850 h1         1 Y6V       0.084700
     39 H16         -1.6200    -3.3200    21.8130 ha         1 Y6V       0.139000
@<TRIPOS>BOND
     1     1     2 2   
     2     2     3 1   
     3     2    13 1   
     4     3     4 1   
     5     3    10 1   
     6     4     5 1   
     7     4    24 1   
     8     4    25 1   
     9     5     6 2   
    10     5     9 1   
    11     6     7 1   
    12     6    26 1   
    13     7     8 2   
    14     7    27 1   
    15     8     9 1   
    16     8    28 1   
    17    10    11 1   
    18    10    12 1   
    19    10    29 1   
    20    11    12 1   
    21    11    30 1   
    22    11    31 1   
    23    12    32 1   
    24    12    33 1   
    25    13    14 ar  
    26    13    23 ar  
    27    14    15 ar  
    28    14    34 1   
    29    15    16 ar  
    30    15    35 1   
    31    16    17 1   
    32    16    22 ar  
    33    17    18 1   
    34    17    36 1   
    35    18    19 2   
    36    18    20 1   
    37    20    21 1   
    38    20    37 1   
    39    20    38 1   
    40    21    22 1   
    41    22    23 ar  
    42    23    39 1   
@<TRIPOS>SUBSTRUCTURE
     1 Y6V         1 TEMP              0 ****  ****    0 ROOT
