@<TRIPOS>MOLECULE
Y6V
   39    42     1     0     0
SMALL
bcc


@<TRIPOS>ATOM
      1 O1           0.0190    -3.6430    18.3510 o          1 Y6V      -0.587100
      2 C1          -0.8740    -3.2660    19.0960 c          1 Y6V       0.693700
      3 N1          -1.1840    -1.9540    19.2620 n          1 Y6V      -0.459800
      4 C2          -0.2730    -0.9300    18.7750 c3         1 Y6V       0.171300
      5 C3           0.1120     0.0180    19.8640 cc         1 Y6V      -0.089400
      6 C4          -0.0050     1.3750    19.8810 cd         1 Y6V      -0.142000
      7 C5           0.4710     1.9610    21.0870 cd         1 Y6V      -0.152000
      8 C6           0.9320     1.0340    21.9690 cc         1 Y6V      -0.112100
      9 S1           0.8010    -0.5560    21.3370 ss         1 Y6V      -0.082800
     10 C7          -2.4030    -1.4800    19.8480 cx         1 Y6V       0.043700
     11 C8          -3.7170    -2.0410    19.4160 cx         1 Y6V      -0.132900
     12 C9          -3.3270    -0.6620    18.9940 cx         1 Y6V      -0.132900
     13 C10         -1.6420    -4.2730    19.8860 ca         1 Y6V      -0.142600
     14 C11         -2.0310    -5.4540    19.2620 ca         1 Y6V      -0.072000
     15 C12         -2.6690    -6.4510    19.9810 ca         1 Y6V      -0.157000
     16 C13         -2.8880    -6.2920    21.3410 ca         1 Y6V       0.032600
     17 N2          -3.4640    -7.2880    22.1220 ns         1 Y6V      -0.470100
     18 C14         -3.9480    -7.0580    23.3670 c          1 Y6V       0.685500
     19 O2          -4.4920    -7.9060    24.0420 o          1 Y6V      -0.597500
     20 C15         -3.8070    -5.6190    23.8220 c6         1 Y6V       0.049400
     21 O3          -2.6490    -4.9880    23.3090 os         1 Y6V      -0.300900
     22 C16         -2.4810    -5.1160    21.9710 ca         1 Y6V       0.065100
     23 C17         -1.8730    -4.1070    21.2490 ca         1 Y6V      -0.085000
     24 H1           0.6050    -1.4210    18.3590 h1         1 Y6V       0.071700
     25 H2          -0.7350    -0.3580    17.9680 h1         1 Y6V       0.071700
     26 H3          -0.4220     1.9370    19.0560 ha         1 Y6V       0.150000
     27 H4           0.4620     3.0220    21.2880 ha         1 Y6V       0.152000
     28 H5           1.3380     1.1970    22.9560 h4         1 Y6V       0.169000
     29 H6          -2.3240    -1.1690    20.8850 h1         1 Y6V       0.087700
     30 H7          -4.4760    -2.1650    20.1780 hc         1 Y6V       0.078700
     31 H8          -3.7190    -2.8150    18.6600 hc         1 Y6V       0.078700
     32 H9          -3.0600    -0.5180    17.9550 hc         1 Y6V       0.078700
     33 H10         -3.8090     0.1890    19.4570 hc         1 Y6V       0.078700
     34 H11         -1.8480    -5.5960    18.2060 ha         1 Y6V       0.153000
     35 H12         -2.9820    -7.3640    19.4900 ha         1 Y6V       0.142000
     36 H13         -3.5970    -8.2080    21.7220 hn         1 Y6V       0.333500
     37 H14         -3.7360    -5.5890    24.9070 h1         1 Y6V       0.084700
     38 H15         -4.7130    -5.0760    23.5220 h1         1 Y6V       0.084700
     39 H16         -1.5510    -3.2140    21.7700 ha         1 Y6V       0.157000
@<TRIPOS>BOND
     1     1     2 2   
     2     2     3 1   
     3     2    13 1   
     4     3     4 1   
     5     3    10 1   
     6     4     5 1   
     7     4    24 1   
     8     4    25 1   
     9     5     6 2   
    10     5     9 1   
    11     6     7 1   
    12     6    26 1   
    13     7     8 2   
    14     7    27 1   
    15     8     9 1   
    16     8    28 1   
    17    10    11 1   
    18    10    12 1   
    19    10    29 1   
    20    11    12 1   
    21    11    30 1   
    22    11    31 1   
    23    12    32 1   
    24    12    33 1   
    25    13    14 ar  
    26    13    23 ar  
    27    14    15 ar  
    28    14    34 1   
    29    15    16 ar  
    30    15    35 1   
    31    16    17 1   
    32    16    22 ar  
    33    17    18 1   
    34    17    36 1   
    35    18    19 2   
    36    18    20 1   
    37    20    21 1   
    38    20    37 1   
    39    20    38 1   
    40    21    22 1   
    41    22    23 ar  
    42    23    39 1   
@<TRIPOS>SUBSTRUCTURE
     1 Y6V         1 TEMP              0 ****  ****    0 ROOT
