@<TRIPOS>MOLECULE
Y6W
   62    64     1     0     0
SMALL
abcg2


@<TRIPOS>ATOM
      1 C1          -4.2700    -0.3160    -0.4390 c6         1 Y6W       0.172300
      2 C2          -4.9080     0.4460    -1.6080 c6         1 Y6W       0.148300
      3 O2          -4.9210    -0.4000    -2.7340 oh         1 Y6W      -0.717000
      4 C3          -4.1500     1.7410    -1.8780 c6         1 Y6W       0.137300
      5 O3          -4.8140     2.4120    -2.9230 oh         1 Y6W      -0.660000
      6 C4          -4.0450     2.5800    -0.6040 c6         1 Y6W       0.111300
      7 O4          -5.3280     3.0570    -0.2740 oh         1 Y6W      -0.703000
      8 C5          -3.4430     1.7030     0.4980 c6         1 Y6W       0.137300
      9 O5          -4.2150     0.5390     0.6870 os         1 Y6W      -0.427000
     10 C6          -3.3470     2.4250     1.8240 c3         1 Y6W       0.167600
     11 O6          -2.6310     1.6210     2.7340 oh         1 Y6W      -0.691000
     12 C7           3.1220    -0.4900    -0.5740 c5         1 Y6W       0.339700
     13 C8           4.1480    -0.6930     0.5350 c5         1 Y6W       0.071300
     14 O1           5.1910     0.2240     0.4010 oh         1 Y6W      -0.703000
     15 C9           4.5300    -2.1570     0.2900 c5         1 Y6W       0.103300
     16 O7           5.3910    -2.2750    -0.8130 oh         1 Y6W      -0.711000
     17 C10          3.1730    -2.7560    -0.0630 c5         1 Y6W       0.143300
     18 O8           2.4040    -1.6880    -0.6320 os         1 Y6W      -0.441000
     19 C11          2.4910    -3.3260     1.1690 c3         1 Y6W       0.219600
     20 O9           1.1820    -3.7510     0.8880 os         1 Y6W      -0.592400
     21 CAK         -2.9210    -0.9610    -0.7630 c3         1 Y6W      -0.098400
     22 CAL         -2.2690    -1.6060     0.4540 c3         1 Y6W      -0.044400
     23 CAM         -0.9660    -2.3130     0.0940 c3         1 Y6W      -0.443400
     24 PAN         -0.1570    -3.0260     1.5630 p5         1 Y6W       1.410400
     25 OAO          0.3010    -1.9210     2.4880 o          1 Y6W      -0.825000
     26 NAZ          2.2010     0.6140    -0.3540 n          1 Y6W      -0.309000
     27 CBA          2.2750     1.7180    -1.1820 c          1 Y6W       0.623000
     28 CBB          1.2620     0.5360     0.6380 cc         1 Y6W       0.016600
     29 CBC          0.3600     1.5040     0.8710 cd         1 Y6W      -0.401200
     30 CBD          0.3540     2.6870     0.0490 c          1 Y6W       0.590200
     31 OBE          3.0900     1.8350    -2.0740 o          1 Y6W      -0.574000
     32 NBF          1.3450     2.6880    -0.9210 ns         1 Y6W      -0.473500
     33 OBG         -0.4170     3.6250     0.1400 o          1 Y6W      -0.578000
     34 OBH         -1.0070    -4.1420     2.1080 o          1 Y6W      -0.825000
     35 H1          -4.9530    -1.1210    -0.1440 h1         1 Y6W       0.084700
     36 H2          -5.9360     0.7040    -1.3120 h1         1 Y6W       0.058700
     37 HO2         -5.3400     0.0770    -3.4580 ho         1 Y6W       0.508000
     38 H3          -3.1250     1.4850    -2.1830 h1         1 Y6W       0.049700
     39 HO3         -4.2270     3.0860    -3.2790 ho         1 Y6W       0.439000
     40 H4          -3.3490     3.4120    -0.7880 h1         1 Y6W       0.039700
     41 HO4         -5.2380     3.8150     0.3100 ho         1 Y6W       0.494000
     42 H5          -2.4200     1.4460     0.1860 h1         1 Y6W       0.067700
     43 H6          -2.8430     3.3840     1.6510 h1         1 Y6W       0.020700
     44 H6A         -4.3540     2.6460     2.2010 h1         1 Y6W       0.020700
     45 HO6         -2.5340     2.1130     3.5540 ho         1 Y6W       0.495000
     46 H9           5.6710     0.2740     1.2330 ho         1 Y6W       0.506000
     47 H10          4.9590    -2.6230     1.1880 h1         1 Y6W       0.052700
     48 H11          6.1140    -1.6470    -0.6920 ho         1 Y6W       0.510000
     49 H12          3.2790    -3.5400    -0.8200 h1         1 Y6W       0.092700
     50 H13          3.0810    -4.1870     1.5000 h1         1 Y6W       0.031200
     51 H5'A         2.5060    -2.5950     1.9840 h1         1 Y6W       0.031200
     52 HAK         -3.0870    -1.7200    -1.5310 hc         1 Y6W       0.040700
     53 HAKA        -2.2200    -0.2440    -1.2040 hc         1 Y6W       0.040700
     54 HAL         -2.0720    -0.8460     1.2140 hc         1 Y6W       0.054200
     55 HALA        -2.9620    -2.3230     0.9060 hc         1 Y6W       0.054200
     56 HAM         -1.1590    -3.1060    -0.6350 hc         1 Y6W       0.047700
     57 HAMA        -0.2840    -1.6090    -0.3880 hc         1 Y6W       0.047700
     58 HBB          1.2490    -0.3690     1.2360 h4         1 Y6W       0.279000
     59 HBC         -0.3760     1.3920     1.6540 ha         1 Y6W       0.252000
     60 HNBF         1.3930     3.5010    -1.5230 hn         1 Y6W       0.325500
     61 H7           3.6320    -0.2820    -1.5180 h2         1 Y6W       0.106700
     62 H8           3.6580    -0.6120     1.5140 h1         1 Y6W       0.072700
@<TRIPOS>BOND
     1     1     2 1   
     2     1     9 1   
     3     1    21 1   
     4     1    35 1   
     5     2     3 1   
     6     2     4 1   
     7     2    36 1   
     8     3    37 1   
     9     4     5 1   
    10     4     6 1   
    11     4    38 1   
    12     5    39 1   
    13     6     7 1   
    14     6     8 1   
    15     6    40 1   
    16     7    41 1   
    17     8     9 1   
    18     8    10 1   
    19     8    42 1   
    20    10    11 1   
    21    10    43 1   
    22    10    44 1   
    23    11    45 1   
    24    12    13 1   
    25    12    18 1   
    26    12    26 1   
    27    12    61 1   
    28    13    14 1   
    29    13    15 1   
    30    13    62 1   
    31    14    46 1   
    32    15    16 1   
    33    15    17 1   
    34    15    47 1   
    35    16    48 1   
    36    17    18 1   
    37    17    19 1   
    38    17    49 1   
    39    19    20 1   
    40    19    50 1   
    41    19    51 1   
    42    20    24 1   
    43    21    22 1   
    44    21    52 1   
    45    21    53 1   
    46    22    23 1   
    47    22    54 1   
    48    22    55 1   
    49    23    24 1   
    50    23    56 1   
    51    23    57 1   
    52    24    25 1   
    53    24    34 1   
    54    26    27 1   
    55    26    28 1   
    56    27    31 2   
    57    27    32 1   
    58    28    29 2   
    59    28    58 1   
    60    29    30 1   
    61    29    59 1   
    62    30    32 1   
    63    30    33 2   
    64    32    60 1   
@<TRIPOS>SUBSTRUCTURE
     1 Y6W         1 TEMP              0 ****  ****    0 ROOT
