@<TRIPOS>MOLECULE
Y6W
   62    64     1     0     0
SMALL
No Charge or Current Charge


@<TRIPOS>ATOM
      1 C1          -4.2140    -0.2470    -0.3650 c6         1 Y6W       0.172300
      2 C2          -4.9270     0.5200    -1.5300 c6         1 Y6W       0.148300
      3 O2          -5.0350    -0.2710    -2.7320 oh         1 Y6W      -0.717000
      4 C3          -4.2010     1.8700    -1.8380 c6         1 Y6W       0.137300
      5 O3          -4.9310     2.6090    -2.8320 oh         1 Y6W      -0.660000
      6 C4          -4.0720     2.7280    -0.5430 c6         1 Y6W       0.111300
      7 O4          -5.3880     3.1810    -0.1420 oh         1 Y6W      -0.703000
      8 C5          -3.3610     1.8660     0.5570 c6         1 Y6W       0.137300
      9 O5          -4.0870     0.6260     0.7910 os         1 Y6W      -0.427000
     10 C6          -3.2010     2.6210     1.9170 c3         1 Y6W       0.167600
     11 O6          -2.4990     1.8550     2.9120 oh         1 Y6W      -0.691000
     12 C7           3.1880    -0.5910    -0.3760 c5         1 Y6W       0.339700
     13 C8           3.8680    -0.7920     1.0250 c5         1 Y6W       0.071300
     14 O1           4.8680     0.1970     1.3610 oh         1 Y6W      -0.703000
     15 C9           4.5180    -2.1800     0.7600 c5         1 Y6W       0.103300
     16 O7           5.7410    -1.9890     0.0410 oh         1 Y6W      -0.711000
     17 C10          3.4070    -2.8990    -0.0980 c5         1 Y6W       0.143300
     18 O8           2.5430    -1.8470    -0.6170 os         1 Y6W      -0.441000
     19 C11          2.5990    -4.0090     0.6600 c3         1 Y6W       0.219600
     20 O9           1.1970    -3.9590     0.3360 os         1 Y6W      -0.592400
     21 CAK         -2.8190    -0.8600    -0.7370 c3         1 Y6W      -0.098400
     22 CAL         -2.0850    -1.5740     0.4230 c3         1 Y6W      -0.044400
     23 CAM         -0.8170    -2.3190    -0.0540 c3         1 Y6W      -0.443400
     24 PAN          0.1600    -3.1430     1.2670 p5         1 Y6W       1.410400
     25 OAO          0.8280    -2.1130     2.1170 o          1 Y6W      -0.825000
     26 NAZ          2.1870     0.5220    -0.4010 n          1 Y6W      -0.309000
     27 CBA          2.0240     1.1940    -1.6300 c          1 Y6W       0.623000
     28 CBB          1.3660     0.8300     0.6950 cc         1 Y6W       0.016600
     29 CBC          0.4490     1.8480     0.5770 cd         1 Y6W      -0.401200
     30 CBD          0.2680     2.5940    -0.6640 c          1 Y6W       0.590200
     31 OBE          2.6810     0.9450    -2.6280 o          1 Y6W      -0.574000
     32 NBF          1.0850     2.1790    -1.6620 ns         1 Y6W      -0.473500
     33 OBG         -0.5410     3.4910    -0.8100 o          1 Y6W      -0.578000
     34 OBH         -0.7020    -4.0730     2.0560 o          1 Y6W      -0.825000
     35 H1          -4.8650    -1.0840    -0.0720 h1         1 Y6W       0.084700
     36 H2          -5.9400     0.7630    -1.1730 h1         1 Y6W       0.058700
     37 HO2         -5.2000     0.3860    -3.4500 ho         1 Y6W       0.508000
     38 H3          -3.1900     1.6510    -2.2100 h1         1 Y6W       0.049700
     39 HO3         -5.5590     3.1570    -2.3060 ho         1 Y6W       0.439000
     40 H4          -3.4320     3.5950    -0.7670 h1         1 Y6W       0.039700
     41 HO4         -5.2700     3.8610     0.5600 ho         1 Y6W       0.494000
     42 H5          -2.3480     1.6250     0.2100 h1         1 Y6W       0.067700
     43 H6          -2.6660     3.5610     1.7270 h1         1 Y6W       0.020700
     44 H6A         -4.2000     2.8830     2.2900 h1         1 Y6W       0.020700
     45 HO6         -2.6060     2.3290     3.7690 ho         1 Y6W       0.495000
     46 H9           4.3990     1.0280     1.6140 ho         1 Y6W       0.506000
     47 H10          4.7130    -2.7110     1.7030 h1         1 Y6W       0.052700
     48 H11          6.0550    -1.1060     0.3640 ho         1 Y6W       0.510000
     49 H12          3.8780    -3.3920    -0.9590 h1         1 Y6W       0.092700
     50 H13          3.0150    -4.9880     0.3900 h1         1 Y6W       0.031200
     51 H5'A         2.7490    -3.8910     1.7420 h1         1 Y6W       0.031200
     52 HAK         -2.9690    -1.5950    -1.5370 hc         1 Y6W       0.040700
     53 HAKA        -2.1520    -0.1020    -1.1620 hc         1 Y6W       0.040700
     54 HAL         -1.8090    -0.8360     1.1880 hc         1 Y6W       0.054200
     55 HALA        -2.7690    -2.2880     0.9000 hc         1 Y6W       0.054200
     56 HAM         -1.0860    -3.0970    -0.7760 hc         1 Y6W       0.047700
     57 HAMA        -0.1410    -1.6200    -0.5550 hc         1 Y6W       0.047700
     58 HBB          1.4910     0.2100     1.5770 h4         1 Y6W       0.279000
     59 HBC         -0.2050     2.1380     1.3900 ha         1 Y6W       0.252000
     60 HNBF         0.9860     2.6610    -2.5410 hn         1 Y6W       0.325500
     61 H7           3.9500    -0.3980    -1.1430 h2         1 Y6W       0.106700
     62 H8           3.1450    -0.9060     1.8410 h1         1 Y6W       0.072700
@<TRIPOS>BOND
     1     1     2 1   
     2     1     9 1   
     3     1    21 1   
     4     1    35 1   
     5     2     3 1   
     6     2     4 1   
     7     2    36 1   
     8     3    37 1   
     9     4     5 1   
    10     4     6 1   
    11     4    38 1   
    12     5    39 1   
    13     6     7 1   
    14     6     8 1   
    15     6    40 1   
    16     7    41 1   
    17     8     9 1   
    18     8    10 1   
    19     8    42 1   
    20    10    11 1   
    21    10    43 1   
    22    10    44 1   
    23    11    45 1   
    24    12    13 1   
    25    12    18 1   
    26    12    26 1   
    27    12    61 1   
    28    13    14 1   
    29    13    15 1   
    30    13    62 1   
    31    14    46 1   
    32    15    16 1   
    33    15    17 1   
    34    15    47 1   
    35    16    48 1   
    36    17    18 1   
    37    17    19 1   
    38    17    49 1   
    39    19    20 1   
    40    19    50 1   
    41    19    51 1   
    42    20    24 1   
    43    21    22 1   
    44    21    52 1   
    45    21    53 1   
    46    22    23 1   
    47    22    54 1   
    48    22    55 1   
    49    23    24 1   
    50    23    56 1   
    51    23    57 1   
    52    24    25 1   
    53    24    34 1   
    54    26    27 1   
    55    26    28 1   
    56    27    31 2   
    57    27    32 1   
    58    28    29 2   
    59    28    58 1   
    60    29    30 1   
    61    29    59 1   
    62    30    32 1   
    63    30    33 2   
    64    32    60 1   
@<TRIPOS>SUBSTRUCTURE
     1 Y6W         1 TEMP              0 ****  ****    0 ROOT
