@<TRIPOS>MOLECULE
Y6Y
   64    68     1     0     0
SMALL
No Charge or Current Charge


@<TRIPOS>ATOM
      1 N1         127.2050   161.5350   152.2090 nc         1 Y6Y      -0.371000
      2 C8         126.7120   151.5030   147.7450 ca         1 Y6Y      -0.123000
      3 C5         128.6430   153.8890   149.6850 ca         1 Y6Y      -0.055000
      4 C6         127.3900   153.2910   149.4120 cp         1 Y6Y      -0.093000
      5 C2         126.3140   155.4120   150.0150 ca         1 Y6Y      -0.202000
      6 C9         126.6860   150.1660   147.3130 ca         1 Y6Y      -0.017500
      7 C10        127.3100   149.1640   148.0840 ca         1 Y6Y      -0.269500
      8 C11        127.9580   149.5140   149.2870 ca         1 Y6Y      -0.017500
      9 C3         127.5740   155.9920   150.2700 ca         1 Y6Y       0.154100
     10 N          126.6010   160.2820   152.2390 nc         1 Y6Y      -0.335000
     11 O          127.0540   147.4070   146.0880 o          1 Y6Y      -0.524000
     12 C1         126.2110   154.0710   149.5940 ca         1 Y6Y      -0.012300
     13 C12        127.9790   150.8540   149.7090 ca         1 Y6Y      -0.123000
     14 C13        125.7710   146.8150   148.2950 c3         1 Y6Y      -0.336100
     15 C14        126.5980   158.1920   150.8390 c3         1 Y6Y       0.138300
     16 C15        127.0880   159.5740   151.2190 cd         1 Y6Y       0.386800
     17 C16        127.9970   161.5360   151.1490 cd         1 Y6Y       0.504800
     18 C17        128.0210   164.2350   151.3340 c5         1 Y6Y       0.083300
     19 C18        126.7160   164.4320   150.5130 c5         1 Y6Y      -0.074900
     20 C19        127.2320   164.9860   149.1530 c5         1 Y6Y      -0.080900
     21 C20        128.5220   165.7940   149.5130 c5         1 Y6Y      -0.080900
     22 C21        128.7280   165.5840   151.0450 c5         1 Y6Y      -0.074900
     23 C22        128.0350   160.2510   149.1840 ca         1 Y6Y      -0.075200
     24 C23        127.0260   160.9070   148.4360 ca         1 Y6Y       0.358900
     25 C24        127.9140   160.1710   146.4260 ca         1 Y6Y       0.350900
     26 C25        128.9510   159.4890   147.0840 ca         1 Y6Y      -0.161000
     27 C26        129.0170   159.5260   148.4860 ca         1 Y6Y      -0.037000
     28 C4         128.7330   155.2240   150.1070 ca         1 Y6Y      -0.147000
     29 C7         127.3490   151.8700   148.9530 cp         1 Y6Y       0.031000
     30 N2         128.0770   160.2940   150.5850 na         1 Y6Y      -0.258800
     31 N3         126.9610   160.8700   147.0840 nb         1 Y6Y      -0.658000
     32 O1         128.3870   146.7210   148.1630 o          1 Y6Y      -0.524000
     33 O2         127.7230   157.2990   150.6810 os         1 Y6Y      -0.345100
     34 S1         129.0570   162.8520   150.6070 ss         1 Y6Y      -0.342300
     35 H1         126.2410   152.2670   147.1320 ha         1 Y6Y       0.123500
     36 H2         129.5550   153.3100   149.5560 ha         1 Y6Y       0.121000
     37 H3         125.4030   155.9890   150.1450 ha         1 Y6Y       0.119000
     38 H4         126.1820   149.9170   146.3790 ha         1 Y6Y       0.137000
     39 H5         128.4440   148.7540   149.8970 ha         1 Y6Y       0.137000
     40 H6         124.7600   152.4430   149.6840 hc         1 Y6Y       0.047367
     41 H7         124.0600   154.0370   149.9530 hc         1 Y6Y       0.047367
     42 H8         124.5270   153.5530   148.3190 hc         1 Y6Y       0.047367
     43 H9         128.4800   151.1100   150.6400 ha         1 Y6Y       0.123500
     44 H10        125.8650   146.9210   149.3810 h1         1 Y6Y       0.102367
     45 H11        124.9270   147.4040   147.9210 h1         1 Y6Y       0.102367
     46 H12        125.6640   145.7620   148.0160 h1         1 Y6Y       0.102367
     47 H13        126.0320   158.2720   149.9030 h1         1 Y6Y       0.064200
     48 H14        125.9210   157.8250   151.6210 h1         1 Y6Y       0.064200
     49 H15        127.8450   164.0800   152.4070 h1         1 Y6Y       0.097700
     50 H16        126.0570   165.1580   151.0050 hc         1 Y6Y       0.058200
     51 H17        126.1330   163.5120   150.3950 hc         1 Y6Y       0.058200
     52 H18        126.4780   165.6120   148.6610 hc         1 Y6Y       0.046950
     53 H19        127.4640   164.1720   148.4570 hc         1 Y6Y       0.046950
     54 H20        129.3810   165.4220   148.9430 hc         1 Y6Y       0.046950
     55 H21        128.4210   166.8570   149.2660 hc         1 Y6Y       0.046950
     56 H22        129.7870   165.5730   151.3280 hc         1 Y6Y       0.058200
     57 H23        128.2580   166.3950   151.6150 hc         1 Y6Y       0.058200
     58 H24        126.2420   161.4740   148.9350 h4         1 Y6Y       0.035100
     59 H25        127.8420   160.1550   145.3390 h4         1 Y6Y       0.027100
     60 H26        129.6900   158.9400   146.5080 ha         1 Y6Y       0.133000
     61 H27        129.8090   159.0030   149.0190 ha         1 Y6Y       0.143000
     62 H28        129.7060   155.6660   150.3060 ha         1 Y6Y       0.130000
     63 C          124.8160   153.4930   149.3740 c3         1 Y6Y      -0.054800
     64 S          127.2700   147.4430   147.5410 sy         1 Y6Y       1.059500
@<TRIPOS>BOND
     1     1    10 1   
     2     1    17 2   
     3     2     6 ar  
     4     2    29 ar  
     5     2    35 1   
     6     3     4 ar  
     7     3    28 ar  
     8     3    36 1   
     9     4    12 ar  
    10     4    29 1   
    11     5     9 ar  
    12     5    12 ar  
    13     5    37 1   
    14     6     7 ar  
    15     6    38 1   
    16     7     8 ar  
    17     7    64 1   
    18     8    13 ar  
    19     8    39 1   
    20     9    28 ar  
    21     9    33 1   
    22    10    16 2   
    23    11    64 2   
    24    12    63 1   
    25    13    29 ar  
    26    13    43 1   
    27    14    44 1   
    28    14    45 1   
    29    14    46 1   
    30    14    64 1   
    31    15    16 1   
    32    15    33 1   
    33    15    47 1   
    34    15    48 1   
    35    16    30 1   
    36    17    30 1   
    37    17    34 1   
    38    18    19 1   
    39    18    22 1   
    40    18    34 1   
    41    18    49 1   
    42    19    20 1   
    43    19    50 1   
    44    19    51 1   
    45    20    21 1   
    46    20    52 1   
    47    20    53 1   
    48    21    22 1   
    49    21    54 1   
    50    21    55 1   
    51    22    56 1   
    52    22    57 1   
    53    23    24 ar  
    54    23    27 ar  
    55    23    30 1   
    56    24    31 ar  
    57    24    58 1   
    58    25    26 ar  
    59    25    31 ar  
    60    25    59 1   
    61    26    27 ar  
    62    26    60 1   
    63    27    61 1   
    64    28    62 1   
    65    32    64 2   
    66    40    63 1   
    67    41    63 1   
    68    42    63 1   
@<TRIPOS>SUBSTRUCTURE
     1 Y6Y         1 TEMP              0 ****  ****    0 ROOT
