@<TRIPOS>MOLECULE
Y6Y
   64    68     1     0     0
SMALL
abcg2


@<TRIPOS>ATOM
      1 N1         127.0790   161.2690   151.7760 nc         1 Y6Y      -0.371000
      2 C8         126.6740   151.3120   147.7760 ca         1 Y6Y      -0.123000
      3 C5         128.5430   153.9850   149.3040 ca         1 Y6Y      -0.055000
      4 C6         127.3280   153.3180   149.1300 cp         1 Y6Y      -0.093000
      5 C2         126.1980   155.4120   149.5190 ca         1 Y6Y      -0.202000
      6 C9         126.6670   149.9450   147.5580 ca         1 Y6Y      -0.017500
      7 C10        127.3340   149.1130   148.4480 ca         1 Y6Y      -0.269500
      8 C11        128.0260   149.6340   149.5310 ca         1 Y6Y      -0.017500
      9 C3         127.4150   156.0600   149.6900 ca         1 Y6Y       0.154100
     10 N          126.5430   160.0220   151.7530 nc         1 Y6Y      -0.335000
     11 O          127.0790   147.1010   146.7790 o          1 Y6Y      -0.524000
     12 C1         126.1370   154.0460   149.2400 ca         1 Y6Y      -0.012300
     13 C12        128.0250   151.0050   149.7340 ca         1 Y6Y      -0.123000
     14 C13        125.7860   146.8730   149.0610 c3         1 Y6Y      -0.336100
     15 C14        126.3680   158.1460   150.1460 c3         1 Y6Y       0.138300
     16 C15        126.7830   159.4970   150.5920 cd         1 Y6Y       0.386800
     17 C16        127.6390   161.4770   150.6190 cd         1 Y6Y       0.504800
     18 C17        128.2200   164.0130   151.4810 c5         1 Y6Y       0.083300
     19 C18        126.8050   164.5770   151.4600 c5         1 Y6Y      -0.074900
     20 C19        126.8250   165.6370   150.3510 c5         1 Y6Y      -0.080900
     21 C20        128.2960   166.0990   150.2350 c5         1 Y6Y      -0.080900
     22 C21        129.0810   165.2530   151.2490 c5         1 Y6Y      -0.074900
     23 C22        127.9150   160.2330   148.4850 ca         1 Y6Y      -0.075200
     24 C23        127.1660   160.7910   147.4570 ca         1 Y6Y       0.358900
     25 C24        128.6340   160.0350   145.8960 ca         1 Y6Y       0.350900
     26 C25        129.4470   159.4470   146.8550 ca         1 Y6Y      -0.161000
     27 C26        129.0820   159.5490   148.1860 ca         1 Y6Y      -0.037000
     28 C4         128.6000   155.3370   149.5730 ca         1 Y6Y      -0.147000
     29 C7         127.3370   151.8620   148.8740 cp         1 Y6Y       0.031000
     30 N2         127.4800   160.3850   149.8230 na         1 Y6Y      -0.258800
     31 N3         127.5190   160.6960   146.1850 nb         1 Y6Y      -0.658000
     32 O1         128.4080   146.7440   148.8840 o          1 Y6Y      -0.524000
     33 O2         127.5420   157.3710   149.9880 os         1 Y6Y      -0.345100
     34 S1         128.5180   162.8720   150.0760 ss         1 Y6Y      -0.342300
     35 H1         126.1640   151.9580   147.0740 ha         1 Y6Y       0.123500
     36 H2         129.4690   153.4290   149.2180 ha         1 Y6Y       0.121000
     37 H3         125.2630   155.9500   149.6160 ha         1 Y6Y       0.119000
     38 H4         126.1470   149.5410   146.7000 ha         1 Y6Y       0.137000
     39 H5         128.5540   148.9880   150.2190 ha         1 Y6Y       0.137000
     40 H6         124.7540   152.4090   149.5330 hc         1 Y6Y       0.047367
     41 H7         124.0240   154.0100   149.6070 hc         1 Y6Y       0.047367
     42 H8         124.4810   153.3220   148.0590 hc         1 Y6Y       0.047367
     43 H9         128.5520   151.4120   150.5880 ha         1 Y6Y       0.123500
     44 H10        125.8790   147.1290   150.1140 h1         1 Y6Y       0.102367
     45 H11        124.9310   147.3810   148.6210 h1         1 Y6Y       0.102367
     46 H12        125.6800   145.7940   148.9460 h1         1 Y6Y       0.102367
     47 H13        125.8060   158.2010   149.2070 h1         1 Y6Y       0.064200
     48 H14        125.7090   157.7290   150.9120 h1         1 Y6Y       0.064200
     49 H15        128.4730   163.4820   152.3970 h1         1 Y6Y       0.097700
     50 H16        126.6240   165.0430   152.4330 hc         1 Y6Y       0.058200
     51 H17        126.0350   163.8190   151.3230 hc         1 Y6Y       0.058200
     52 H18        126.1500   166.4610   150.5780 hc         1 Y6Y       0.046950
     53 H19        126.4880   165.2030   149.4090 hc         1 Y6Y       0.046950
     54 H20        128.6720   165.9380   149.2230 hc         1 Y6Y       0.046950
     55 H21        128.4110   167.1630   150.4420 hc         1 Y6Y       0.046950
     56 H22        130.1020   165.0280   150.9360 hc         1 Y6Y       0.058200
     57 H23        129.1500   165.7750   152.2060 hc         1 Y6Y       0.058200
     58 H24        126.2520   161.3310   147.6850 h4         1 Y6Y       0.035100
     59 H25        128.8980   159.9700   144.8460 h4         1 Y6Y       0.027100
     60 H26        130.3460   158.9240   146.5620 ha         1 Y6Y       0.133000
     61 H27        129.6850   159.1140   148.9720 ha         1 Y6Y       0.143000
     62 H28        129.5540   155.8340   149.7020 ha         1 Y6Y       0.130000
     63 C          124.7820   153.4100   149.1050 c3         1 Y6Y      -0.054800
     64 S          127.2690   147.3570   148.2040 sy         1 Y6Y       1.059500
@<TRIPOS>BOND
     1     1    10 1   
     2     1    17 2   
     3     2     6 ar  
     4     2    29 ar  
     5     2    35 1   
     6     3     4 ar  
     7     3    28 ar  
     8     3    36 1   
     9     4    12 ar  
    10     4    29 1   
    11     5     9 ar  
    12     5    12 ar  
    13     5    37 1   
    14     6     7 ar  
    15     6    38 1   
    16     7     8 ar  
    17     7    64 1   
    18     8    13 ar  
    19     8    39 1   
    20     9    28 ar  
    21     9    33 1   
    22    10    16 2   
    23    11    64 2   
    24    12    63 1   
    25    13    29 ar  
    26    13    43 1   
    27    14    44 1   
    28    14    45 1   
    29    14    46 1   
    30    14    64 1   
    31    15    16 1   
    32    15    33 1   
    33    15    47 1   
    34    15    48 1   
    35    16    30 1   
    36    17    30 1   
    37    17    34 1   
    38    18    19 1   
    39    18    22 1   
    40    18    34 1   
    41    18    49 1   
    42    19    20 1   
    43    19    50 1   
    44    19    51 1   
    45    20    21 1   
    46    20    52 1   
    47    20    53 1   
    48    21    22 1   
    49    21    54 1   
    50    21    55 1   
    51    22    56 1   
    52    22    57 1   
    53    23    24 ar  
    54    23    27 ar  
    55    23    30 1   
    56    24    31 ar  
    57    24    58 1   
    58    25    26 ar  
    59    25    31 ar  
    60    25    59 1   
    61    26    27 ar  
    62    26    60 1   
    63    27    61 1   
    64    28    62 1   
    65    32    64 2   
    66    40    63 1   
    67    41    63 1   
    68    42    63 1   
@<TRIPOS>SUBSTRUCTURE
     1 Y6Y         1 TEMP              0 ****  ****    0 ROOT
