@<TRIPOS>MOLECULE
Y6Z
  105   108     1     0     0
SMALL
No Charge or Current Charge


@<TRIPOS>ATOM
      1 C1          12.4080   -20.1240   -17.8390 c3         1 Y6Z      -0.085100
      2 C2          12.6900   -19.1990   -19.0420 c3         1 Y6Z      -0.031500
      3 C3          12.0750   -19.7700   -20.3110 c2         1 Y6Z      -0.211200
      4 C4          12.6800   -19.8000   -21.5090 c2         1 Y6Z      -0.224200
      5 C5          12.1710   -20.5200   -22.7450 c3         1 Y6Z      -0.036200
      6 C6          11.6310   -19.5740   -23.8420 c3         1 Y6Z      -0.053200
      7 C7          10.1470   -19.2890   -23.7160 c2         1 Y6Z      -0.134200
      8 C8           9.5530   -18.6270   -22.6980 ce         1 Y6Z      -0.320200
      9 C9           8.0840   -18.3610   -22.6100 c          1 Y6Z       0.576300
     10 O1           7.3100   -18.7520   -23.4740 o          1 Y6Z      -0.524100
     11 C10          7.5910   -17.5500   -21.4010 c3         1 Y6Z      -0.162700
     12 C11          6.5820   -18.3710   -20.5580 c3         1 Y6Z      -0.081100
     13 C12          7.0690   -16.1420   -21.8100 c6         1 Y6Z       0.194300
     14 C13          8.0350   -15.3980   -22.7650 c6         1 Y6Z      -0.108400
     15 C14          7.6310   -13.9160   -22.9260 c6         1 Y6Z      -0.071400
     16 C15          7.4710   -13.2260   -21.5430 c6         1 Y6Z      -0.062700
     17 C16          7.0300   -11.7420   -21.7220 c3         1 Y6Z      -0.082100
     18 C17          6.5080   -14.0460   -20.6130 c6         1 Y6Z       0.326000
     19 O2           5.1790   -14.0760   -21.1570 oh         1 Y6Z      -0.648000
     20 O3           6.9580   -15.4160   -20.5680 os         1 Y6Z      -0.505000
     21 C18          6.4770   -13.5310   -19.1220 c          1 Y6Z       0.489100
     22 O4           5.4500   -13.5670   -18.4370 o          1 Y6Z      -0.473100
     23 C19          7.8790   -13.1660   -18.4620 c          1 Y6Z       0.535100
     24 O5           8.3320   -12.0270   -18.5480 o          1 Y6Z      -0.594100
     25 N1           8.5670   -14.1570   -17.7070 n          1 Y6Z      -0.371800
     26 C20          8.1900   -15.6040   -17.8000 c6         1 Y6Z       0.109000
     27 C21          8.4520   -16.4220   -16.5190 c6         1 Y6Z      -0.098400
     28 C22          9.8840   -16.2290   -16.0060 c6         1 Y6Z      -0.077400
     29 C23         10.1490   -14.7330   -15.7870 c6         1 Y6Z      -0.080400
     30 C24          9.8910   -13.8490   -17.0450 c6         1 Y6Z       0.047700
     31 C25         11.1200   -13.8380   -18.0020 c          1 Y6Z       0.584100
     32 O6          11.6770   -12.7850   -18.2790 o          1 Y6Z      -0.501000
     33 O7          11.3240   -15.0150   -18.6970 os         1 Y6Z      -0.431100
     34 C26         12.5410   -15.2360   -19.4670 c3         1 Y6Z       0.172300
     35 C27         12.6720   -14.2700   -20.7070 c3         1 Y6Z      -0.070700
     36 C28         11.4290   -14.2860   -21.6240 c3         1 Y6Z      -0.089100
     37 C29         13.9650   -14.5030   -21.5480 c3         1 Y6Z      -0.071400
     38 C30         15.3380   -14.4680   -20.7870 c6         1 Y6Z      -0.100700
     39 C31         15.5510   -13.1140   -20.0390 c6         1 Y6Z      -0.073400
     40 C32         16.9220   -13.0450   -19.3180 c6         1 Y6Z      -0.106400
     41 C33         18.0850   -13.3030   -20.3040 c6         1 Y6Z       0.127300
     42 O8          19.3450   -13.2540   -19.6130 oh         1 Y6Z      -0.729000
     43 C34         17.8980   -14.6870   -20.9900 c6         1 Y6Z       0.182300
     44 O9          18.9970   -14.9380   -21.8830 oh         1 Y6Z      -0.648000
     45 C35         16.5370   -14.7430   -21.7520 c6         1 Y6Z       0.179300
     46 O10         16.4090   -16.0250   -22.3870 oh         1 Y6Z      -0.704000
     47 C36         12.5650   -16.7400   -19.8790 c3         1 Y6Z      -0.080400
     48 C37         12.2360   -17.7460   -18.7520 c3         1 Y6Z      -0.066400
     49 H1          12.9130   -19.7530   -16.9380 hc         1 Y6Z       0.035700
     50 H2          11.3330   -20.1800   -17.6310 hc         1 Y6Z       0.035700
     51 H3          12.7740   -21.1380   -18.0390 hc         1 Y6Z       0.035700
     52 H4          13.7800   -19.1710   -19.1670 hc         1 Y6Z       0.052700
     53 H5          11.1010   -20.2440   -20.1740 ha         1 Y6Z       0.165000
     54 H6          13.6660   -19.3500   -21.6360 ha         1 Y6Z       0.171000
     55 H7          11.3920   -21.2460   -22.4800 hc         1 Y6Z       0.049200
     56 H8          12.9940   -21.1080   -23.1690 hc         1 Y6Z       0.049200
     57 H9          11.8190   -20.0390   -24.8180 hc         1 Y6Z       0.054700
     58 H10         12.2050   -18.6390   -23.8390 hc         1 Y6Z       0.054700
     59 H11          9.5510   -19.6760   -24.5470 ha         1 Y6Z       0.183000
     60 H12         10.1600   -18.2440   -21.8800 ha         1 Y6Z       0.187000
     61 H13          8.4640   -17.3850   -20.7590 hc         1 Y6Z       0.077700
     62 H14          6.3150   -17.8380   -19.6370 hc         1 Y6Z       0.042367
     63 H15          5.6610   -18.5580   -21.1240 hc         1 Y6Z       0.042367
     64 H16          7.0130   -19.3380   -20.2740 hc         1 Y6Z       0.042367
     65 H17          6.0780   -16.2400   -22.2800 h1         1 Y6Z       0.062700
     66 H18          8.0430   -15.8790   -23.7520 hc         1 Y6Z       0.055700
     67 H19          9.0560   -15.4690   -22.3770 hc         1 Y6Z       0.055700
     68 H20          8.3860   -13.3910   -23.5270 hc         1 Y6Z       0.054200
     69 H21          6.6890   -13.8540   -23.4890 hc         1 Y6Z       0.054200
     70 H22          8.4620   -13.1900   -21.0760 hc         1 Y6Z       0.077700
     71 H23          6.9320   -11.2240   -20.7610 hc         1 Y6Z       0.043367
     72 H24          7.7620   -11.1840   -22.3190 hc         1 Y6Z       0.043367
     73 H25          6.0640   -11.6690   -22.2370 hc         1 Y6Z       0.043367
     74 H26          4.6660   -14.6450   -20.5460 ho         1 Y6Z       0.459000
     75 H27          7.1240   -15.7130   -18.0390 h1         1 Y6Z       0.055200
     76 H28          8.7550   -16.0540   -18.6280 h1         1 Y6Z       0.055200
     77 H29          7.7380   -16.1160   -15.7410 hc         1 Y6Z       0.054700
     78 H30          8.2620   -17.4860   -16.7140 hc         1 Y6Z       0.054700
     79 H31         10.0230   -16.7770   -15.0640 hc         1 Y6Z       0.048700
     80 H32         10.6080   -16.6440   -16.7140 hc         1 Y6Z       0.048700
     81 H33         11.1770   -14.5830   -15.4290 hc         1 Y6Z       0.065700
     82 H34          9.4990   -14.3790   -14.9750 hc         1 Y6Z       0.065700
     83 H35          9.8450   -12.8130   -16.6800 h1         1 Y6Z       0.109700
     84 H36         13.4020   -15.0660   -18.8080 h1         1 Y6Z       0.069700
     85 H37         12.7550   -13.2440   -20.3450 hc         1 Y6Z       0.061700
     86 H38         10.5160   -14.1530   -21.0360 hc         1 Y6Z       0.039700
     87 H39         11.4790   -13.4720   -22.3570 hc         1 Y6Z       0.039700
     88 H40         11.3570   -15.2300   -22.1760 hc         1 Y6Z       0.039700
     89 H41         13.8600   -15.4610   -22.0720 hc         1 Y6Z       0.041200
     90 H42         13.9890   -13.7460   -22.3430 hc         1 Y6Z       0.041200
     91 H43         15.3190   -15.2760   -20.0440 hc         1 Y6Z       0.061700
     92 H44         15.4690   -12.2800   -20.7500 hc         1 Y6Z       0.051200
     93 H45         14.7620   -12.9610   -19.2910 hc         1 Y6Z       0.051200
     94 H46         16.9480   -13.7830   -18.5050 hc         1 Y6Z       0.053700
     95 H47         17.0370   -12.0580   -18.8490 hc         1 Y6Z       0.053700
     96 H48         18.0580   -12.5230   -21.0820 h1         1 Y6Z       0.038700
     97 H49         19.4090   -12.3650   -19.1910 ho         1 Y6Z       0.510000
     98 H50         17.8810   -15.4550   -20.2020 h1         1 Y6Z       0.052700
     99 H51         19.7740   -14.5510   -21.4180 ho         1 Y6Z       0.458000
    100 H52         16.5460   -13.9540   -22.5200 h1         1 Y6Z       0.037700
    101 H53         17.3160   -16.2280   -22.7140 ho         1 Y6Z       0.500000
    102 H54         11.8680   -16.9120   -20.7050 hc         1 Y6Z       0.055200
    103 H55         13.5640   -16.9740   -20.2640 hc         1 Y6Z       0.055200
    104 H56         12.7130   -17.4080   -17.8230 hc         1 Y6Z       0.042700
    105 H57         11.1520   -17.7440   -18.5840 hc         1 Y6Z       0.042700
@<TRIPOS>BOND
     1     1     2 1   
     2     1    49 1   
     3     1    50 1   
     4     1    51 1   
     5     2     3 1   
     6     2    48 1   
     7     2    52 1   
     8     3     4 2   
     9     3    53 1   
    10     4     5 1   
    11     4    54 1   
    12     5     6 1   
    13     5    55 1   
    14     5    56 1   
    15     6     7 1   
    16     6    57 1   
    17     6    58 1   
    18     7     8 2   
    19     7    59 1   
    20     8     9 1   
    21     8    60 1   
    22     9    10 2   
    23     9    11 1   
    24    11    12 1   
    25    11    13 1   
    26    11    61 1   
    27    12    62 1   
    28    12    63 1   
    29    12    64 1   
    30    13    14 1   
    31    13    20 1   
    32    13    65 1   
    33    14    15 1   
    34    14    66 1   
    35    14    67 1   
    36    15    16 1   
    37    15    68 1   
    38    15    69 1   
    39    16    17 1   
    40    16    18 1   
    41    16    70 1   
    42    17    71 1   
    43    17    72 1   
    44    17    73 1   
    45    18    19 1   
    46    18    20 1   
    47    18    21 1   
    48    19    74 1   
    49    21    22 2   
    50    21    23 1   
    51    23    24 2   
    52    23    25 1   
    53    25    26 1   
    54    25    30 1   
    55    26    27 1   
    56    26    75 1   
    57    26    76 1   
    58    27    28 1   
    59    27    77 1   
    60    27    78 1   
    61    28    29 1   
    62    28    79 1   
    63    28    80 1   
    64    29    30 1   
    65    29    81 1   
    66    29    82 1   
    67    30    31 1   
    68    30    83 1   
    69    31    32 2   
    70    31    33 1   
    71    33    34 1   
    72    34    35 1   
    73    34    47 1   
    74    34    84 1   
    75    35    36 1   
    76    35    37 1   
    77    35    85 1   
    78    36    86 1   
    79    36    87 1   
    80    36    88 1   
    81    37    38 1   
    82    37    89 1   
    83    37    90 1   
    84    38    39 1   
    85    38    45 1   
    86    38    91 1   
    87    39    40 1   
    88    39    92 1   
    89    39    93 1   
    90    40    41 1   
    91    40    94 1   
    92    40    95 1   
    93    41    42 1   
    94    41    43 1   
    95    41    96 1   
    96    42    97 1   
    97    43    44 1   
    98    43    45 1   
    99    43    98 1   
   100    44    99 1   
   101    45    46 1   
   102    45   100 1   
   103    46   101 1   
   104    47    48 1   
   105    47   102 1   
   106    47   103 1   
   107    48   104 1   
   108    48   105 1   
@<TRIPOS>SUBSTRUCTURE
     1 Y6Z         1 TEMP              0 ****  ****    0 ROOT
