@<TRIPOS>MOLECULE
Y6Z
  105   108     1     0     0
SMALL
abcg2


@<TRIPOS>ATOM
      1 C1          12.5490   -19.9350   -18.0200 c3         1 Y6Z      -0.085100
      2 C2          12.6900   -19.0440   -19.2540 c3         1 Y6Z      -0.031500
      3 C3          12.0990   -19.7400   -20.4470 c2         1 Y6Z      -0.211200
      4 C4          12.7540   -19.9960   -21.5760 c2         1 Y6Z      -0.224200
      5 C5          12.2400   -20.7850   -22.7390 c3         1 Y6Z      -0.036200
      6 C6          11.9370   -19.9110   -23.9790 c3         1 Y6Z      -0.053200
      7 C7          10.5700   -19.3280   -23.8800 c2         1 Y6Z      -0.134200
      8 C8          10.2820   -18.1390   -23.3490 ce         1 Y6Z      -0.320200
      9 C9           8.8870   -17.7060   -23.1290 c          1 Y6Z       0.576300
     10 O1           7.9750   -18.0480   -23.8540 o          1 Y6Z      -0.524100
     11 C10          8.6530   -16.9160   -21.8580 c3         1 Y6Z      -0.162700
     12 C11          8.4200   -17.9570   -20.7530 c3         1 Y6Z      -0.081100
     13 C12          7.5090   -15.9170   -21.9620 c6         1 Y6Z       0.194300
     14 C13          7.6980   -14.8700   -23.0480 c6         1 Y6Z      -0.108400
     15 C14          6.6380   -13.7800   -22.9330 c6         1 Y6Z      -0.071400
     16 C15          6.6200   -13.1750   -21.5300 c6         1 Y6Z      -0.062700
     17 C16          5.5680   -12.0860   -21.3840 c3         1 Y6Z      -0.082100
     18 C17          6.4640   -14.3120   -20.5070 c6         1 Y6Z       0.326000
     19 O2           5.1860   -14.8220   -20.6270 oh         1 Y6Z      -0.648000
     20 O3           7.4570   -15.2850   -20.6820 os         1 Y6Z      -0.505000
     21 C18          6.7260   -13.8470   -19.0650 c          1 Y6Z       0.489100
     22 O4           5.8400   -13.6950   -18.2650 o          1 Y6Z      -0.473100
     23 C19          8.1460   -13.4590   -18.6710 c          1 Y6Z       0.535100
     24 O5           8.5140   -12.3580   -19.0530 o          1 Y6Z      -0.594100
     25 N1           8.8350   -14.2550   -17.8420 n          1 Y6Z      -0.371800
     26 C20          8.4650   -15.6330   -17.5470 c6         1 Y6Z       0.109000
     27 C21          8.3980   -15.8890   -16.0520 c6         1 Y6Z      -0.098400
     28 C22          9.6980   -15.4680   -15.3820 c6         1 Y6Z      -0.077400
     29 C23          9.9880   -14.0070   -15.6940 c6         1 Y6Z      -0.080400
     30 C24         10.0260   -13.7310   -17.2010 c6         1 Y6Z       0.047700
     31 C25         11.3430   -14.1810   -17.8210 c          1 Y6Z       0.584100
     32 O6          12.3970   -13.8710   -17.3230 o          1 Y6Z      -0.501000
     33 O7          11.2070   -14.8730   -18.9360 os         1 Y6Z      -0.431100
     34 C26         12.3990   -15.2350   -19.6760 c3         1 Y6Z       0.172300
     35 C27         12.6150   -14.2000   -20.7870 c3         1 Y6Z      -0.070700
     36 C28         11.4400   -14.0860   -21.7530 c3         1 Y6Z      -0.089100
     37 C29         13.9030   -14.4730   -21.5730 c3         1 Y6Z      -0.071400
     38 C30         15.1770   -14.6610   -20.7470 c6         1 Y6Z      -0.100700
     39 C31         15.4970   -13.4310   -19.8980 c6         1 Y6Z      -0.073400
     40 C32         16.7600   -13.6370   -19.0750 c6         1 Y6Z      -0.106400
     41 C33         17.9340   -13.9750   -19.9770 c6         1 Y6Z       0.127300
     42 O8          19.1150   -14.2590   -19.2520 oh         1 Y6Z      -0.729000
     43 C34         17.6330   -15.2080   -20.8200 c6         1 Y6Z       0.182300
     44 O9          18.7010   -15.5010   -21.6890 oh         1 Y6Z      -0.648000
     45 C35         16.3730   -14.9980   -21.6500 c6         1 Y6Z       0.179300
     46 O10         16.1630   -16.1780   -22.3940 oh         1 Y6Z      -0.704000
     47 C36         12.2610   -16.6770   -20.1290 c3         1 Y6Z      -0.080400
     48 C37         12.0800   -17.6640   -18.9760 c3         1 Y6Z      -0.066400
     49 H1          12.9900   -19.4610   -17.1420 hc         1 Y6Z       0.035700
     50 H2          11.4970   -20.1280   -17.7990 hc         1 Y6Z       0.035700
     51 H3          13.0400   -20.8980   -18.1650 hc         1 Y6Z       0.035700
     52 H4          13.7580   -18.8890   -19.4490 hc         1 Y6Z       0.052700
     53 H5          11.0780   -20.1030   -20.3320 ha         1 Y6Z       0.165000
     54 H6          13.7720   -19.6230   -21.6810 ha         1 Y6Z       0.171000
     55 H7          11.3460   -21.3470   -22.4580 hc         1 Y6Z       0.049200
     56 H8          12.9950   -21.5240   -23.0200 hc         1 Y6Z       0.049200
     57 H9          11.9990   -20.5300   -24.8760 hc         1 Y6Z       0.054700
     58 H10         12.6930   -19.1290   -24.0700 hc         1 Y6Z       0.054700
     59 H11          9.7520   -19.9740   -24.1900 ha         1 Y6Z       0.183000
     60 H12         11.0770   -17.5020   -22.9740 ha         1 Y6Z       0.187000
     61 H13          9.5640   -16.3610   -21.6180 hc         1 Y6Z       0.077700
     62 H14          8.3600   -17.4850   -19.7760 hc         1 Y6Z       0.042367
     63 H15          7.4940   -18.5060   -20.9270 hc         1 Y6Z       0.042367
     64 H16          9.2370   -18.6780   -20.7160 hc         1 Y6Z       0.042367
     65 H17          6.5720   -16.4590   -22.1400 h1         1 Y6Z       0.062700
     66 H18          7.6420   -15.3420   -24.0300 hc         1 Y6Z       0.055700
     67 H19          8.6970   -14.4300   -22.9590 hc         1 Y6Z       0.055700
     68 H20          6.8410   -12.9870   -23.6570 hc         1 Y6Z       0.054200
     69 H21          5.6530   -14.1850   -23.1840 hc         1 Y6Z       0.054200
     70 H22          7.6030   -12.7300   -21.3570 hc         1 Y6Z       0.077700
     71 H23          5.5660   -11.6410   -20.3880 hc         1 Y6Z       0.043367
     72 H24          5.7750   -11.2830   -22.0930 hc         1 Y6Z       0.043367
     73 H25          4.5650   -12.4580   -21.5900 hc         1 Y6Z       0.043367
     74 H26          5.0320   -15.5130   -19.9700 ho         1 Y6Z       0.459000
     75 H27          7.5130   -15.8700   -18.0180 h1         1 Y6Z       0.055200
     76 H28          9.2050   -16.2970   -18.0010 h1         1 Y6Z       0.055200
     77 H29          7.5610   -15.3310   -15.6230 hc         1 Y6Z       0.054700
     78 H30          8.1980   -16.9500   -15.8910 hc         1 Y6Z       0.054700
     79 H31          9.6360   -15.6100   -14.3020 hc         1 Y6Z       0.048700
     80 H32         10.5200   -16.1020   -15.7330 hc         1 Y6Z       0.048700
     81 H33         10.9260   -13.6810   -15.2460 hc         1 Y6Z       0.065700
     82 H34          9.2000   -13.3830   -15.2650 hc         1 Y6Z       0.065700
     83 H35         10.0210   -12.6470   -17.3380 h1         1 Y6Z       0.109700
     84 H36         13.2470   -15.1880   -18.9900 h1         1 Y6Z       0.069700
     85 H37         12.7200   -13.2290   -20.2900 hc         1 Y6Z       0.061700
     86 H38         10.5040   -13.8550   -21.2440 hc         1 Y6Z       0.039700
     87 H39         11.6250   -13.2850   -22.4700 hc         1 Y6Z       0.039700
     88 H40         11.2960   -15.0040   -22.3280 hc         1 Y6Z       0.039700
     89 H41         13.7340   -15.3510   -22.2050 hc         1 Y6Z       0.041200
     90 H42         14.0560   -13.6350   -22.2620 hc         1 Y6Z       0.041200
     91 H43         15.0490   -15.5130   -20.0680 hc         1 Y6Z       0.061700
     92 H44         15.6140   -12.5600   -20.5540 hc         1 Y6Z       0.051200
     93 H45         14.6660   -13.2000   -19.2290 hc         1 Y6Z       0.051200
     94 H46         16.6050   -14.4510   -18.3590 hc         1 Y6Z       0.053700
     95 H47         16.9860   -12.7390   -18.4940 hc         1 Y6Z       0.053700
     96 H48         18.1000   -13.1310   -20.6650 h1         1 Y6Z       0.038700
     97 H49         19.4550   -13.4370   -18.8860 ho         1 Y6Z       0.510000
     98 H50         17.4480   -16.0500   -20.1300 h1         1 Y6Z       0.052700
     99 H51         19.5090   -15.4810   -21.1650 ho         1 Y6Z       0.458000
    100 H52         16.5440   -14.1430   -22.3250 h1         1 Y6Z       0.037700
    101 H53         15.5790   -15.9800   -23.1310 ho         1 Y6Z       0.500000
    102 H54         11.4560   -16.7940   -20.8560 hc         1 Y6Z       0.055200
    103 H55         13.1830   -16.9300   -20.6610 hc         1 Y6Z       0.055200
    104 H56         12.5670   -17.2740   -18.0750 hc         1 Y6Z       0.042700
    105 H57         11.0200   -17.7720   -18.7250 hc         1 Y6Z       0.042700
@<TRIPOS>BOND
     1     1     2 1   
     2     1    49 1   
     3     1    50 1   
     4     1    51 1   
     5     2     3 1   
     6     2    48 1   
     7     2    52 1   
     8     3     4 2   
     9     3    53 1   
    10     4     5 1   
    11     4    54 1   
    12     5     6 1   
    13     5    55 1   
    14     5    56 1   
    15     6     7 1   
    16     6    57 1   
    17     6    58 1   
    18     7     8 2   
    19     7    59 1   
    20     8     9 1   
    21     8    60 1   
    22     9    10 2   
    23     9    11 1   
    24    11    12 1   
    25    11    13 1   
    26    11    61 1   
    27    12    62 1   
    28    12    63 1   
    29    12    64 1   
    30    13    14 1   
    31    13    20 1   
    32    13    65 1   
    33    14    15 1   
    34    14    66 1   
    35    14    67 1   
    36    15    16 1   
    37    15    68 1   
    38    15    69 1   
    39    16    17 1   
    40    16    18 1   
    41    16    70 1   
    42    17    71 1   
    43    17    72 1   
    44    17    73 1   
    45    18    19 1   
    46    18    20 1   
    47    18    21 1   
    48    19    74 1   
    49    21    22 2   
    50    21    23 1   
    51    23    24 2   
    52    23    25 1   
    53    25    26 1   
    54    25    30 1   
    55    26    27 1   
    56    26    75 1   
    57    26    76 1   
    58    27    28 1   
    59    27    77 1   
    60    27    78 1   
    61    28    29 1   
    62    28    79 1   
    63    28    80 1   
    64    29    30 1   
    65    29    81 1   
    66    29    82 1   
    67    30    31 1   
    68    30    83 1   
    69    31    32 2   
    70    31    33 1   
    71    33    34 1   
    72    34    35 1   
    73    34    47 1   
    74    34    84 1   
    75    35    36 1   
    76    35    37 1   
    77    35    85 1   
    78    36    86 1   
    79    36    87 1   
    80    36    88 1   
    81    37    38 1   
    82    37    89 1   
    83    37    90 1   
    84    38    39 1   
    85    38    45 1   
    86    38    91 1   
    87    39    40 1   
    88    39    92 1   
    89    39    93 1   
    90    40    41 1   
    91    40    94 1   
    92    40    95 1   
    93    41    42 1   
    94    41    43 1   
    95    41    96 1   
    96    42    97 1   
    97    43    44 1   
    98    43    45 1   
    99    43    98 1   
   100    44    99 1   
   101    45    46 1   
   102    45   100 1   
   103    46   101 1   
   104    47    48 1   
   105    47   102 1   
   106    47   103 1   
   107    48   104 1   
   108    48   105 1   
@<TRIPOS>SUBSTRUCTURE
     1 Y6Z         1 TEMP              0 ****  ****    0 ROOT
