@<TRIPOS>MOLECULE
Y70
   31    33     1     0     0
SMALL
No Charge or Current Charge


@<TRIPOS>ATOM
      1 C1          -4.2350    -1.0720    -0.1490 ca         1 Y70      -0.190000
      2 C2          -4.5920     0.2750     0.1110 ca         1 Y70      -0.041000
      3 C3          -3.5930     1.2590     0.2680 ca         1 Y70      -0.106000
      4 C4          -2.2540     0.8580     0.1580 ca         1 Y70      -0.083600
      5 C5          -1.9140    -0.4650    -0.0990 ca         1 Y70      -0.272600
      6 C6          -2.8840    -1.4510    -0.2540 ca         1 Y70       0.422000
      7 C7          -0.9990     1.6580     0.2690 c          1 Y70       0.587600
      8 N8           0.0370     0.7410     0.0770 n          1 Y70      -0.390400
      9 C9          -0.4340    -0.5550    -0.1640 c          1 Y70       0.607600
     10 N10         -2.5420    -2.7450    -0.4990 nv         1 Y70      -1.108000
     11 O11          0.2390    -1.5530    -0.3760 o          1 Y70      -0.528000
     12 C12          1.4790     1.1310     0.0630 c6         1 Y70       0.042700
     13 O13         -0.8910     2.8570     0.4810 o          1 Y70      -0.487000
     14 C14          2.1020     1.0110     1.4830 c6         1 Y70      -0.087400
     15 C15          2.3190     0.4340    -1.0480 c          1 Y70       0.579000
     16 N16          3.4140    -0.2860    -0.6570 ns         1 Y70      -0.468500
     17 C17          3.7000    -0.7830     0.5800 c          1 Y70       0.587000
     18 C18          2.7640    -0.3670     1.7200 c6         1 Y70      -0.162400
     19 O19          2.0540     0.5620    -2.2330 o          1 Y70      -0.506000
     20 O20          4.6900    -1.4690     0.7690 o          1 Y70      -0.517000
     21 H1          -5.0160    -1.8180    -0.2640 ha         1 Y70       0.118000
     22 H2          -5.6410     0.5520     0.1900 ha         1 Y70       0.120000
     23 H3          -3.8550     2.2970     0.4670 ha         1 Y70       0.141000
     24 H101        -3.2490    -3.3920    -0.8450 hn         1 Y70       0.502500
     25 H102        -1.5690    -2.9570    -0.7180 hn         1 Y70       0.502500
     26 H12          1.5250     2.1950    -0.2110 h1         1 Y70       0.102700
     27 H141         2.8740     1.7860     1.5920 hc         1 Y70       0.067200
     28 H142         1.3530     1.2240     2.2600 hc         1 Y70       0.067200
     29 H181         3.2880    -0.4390     2.6830 hc         1 Y70       0.084200
     30 H182         1.9590    -1.1130     1.7350 hc         1 Y70       0.084200
     31 H16          4.0070    -0.6170    -1.4030 hn         1 Y70       0.330500
@<TRIPOS>BOND
     1     1     2 ar  
     2     1     6 ar  
     3     1    21 1   
     4     2     3 ar  
     5     2    22 1   
     6     3     4 ar  
     7     3    23 1   
     8     4     5 ar  
     9     4     7 1   
    10     5     6 ar  
    11     5     9 1   
    12     6    10 1   
    13     7     8 1   
    14     7    13 2   
    15     8     9 1   
    16     8    12 1   
    17     9    11 2   
    18    10    24 1   
    19    10    25 1   
    20    12    14 1   
    21    12    15 1   
    22    12    26 1   
    23    14    18 1   
    24    14    27 1   
    25    14    28 1   
    26    15    16 1   
    27    15    19 2   
    28    16    17 1   
    29    16    31 1   
    30    17    18 1   
    31    17    20 2   
    32    18    29 1   
    33    18    30 1   
@<TRIPOS>SUBSTRUCTURE
     1 Y70         1 TEMP              0 ****  ****    0 ROOT
