@<TRIPOS>MOLECULE
Y70
   31    33     1     0     0
SMALL
bcc


@<TRIPOS>ATOM
      1 C1          -4.1210    -1.0790    -0.1600 ca         1 Y70      -0.208000
      2 C2          -4.4720     0.2210     0.1300 ca         1 Y70      -0.059000
      3 C3          -3.5130     1.2320     0.3080 ca         1 Y70      -0.124000
      4 C4          -2.2060     0.8480     0.1720 ca         1 Y70      -0.083600
      5 C5          -1.8260    -0.4600    -0.1230 ca         1 Y70      -0.272600
      6 C6          -2.7670    -1.4780    -0.2990 ca         1 Y70       0.283600
      7 C7          -0.9720     1.6590     0.2890 c          1 Y70       0.730100
      8 N8           0.0810     0.7860     0.0540 n          1 Y70      -0.524400
      9 C9          -0.3700    -0.5060    -0.1990 c          1 Y70       0.750100
     10 N10         -2.4400    -2.7530    -0.5650 nv         1 Y70      -0.859200
     11 O11          0.3590    -1.4440    -0.4380 o          1 Y70      -0.603500
     12 C12          1.4650     1.2080     0.0780 c6         1 Y70       0.042700
     13 O13         -0.8590     2.8340     0.5340 o          1 Y70      -0.562500
     14 C14          2.1360     1.0730     1.4370 c6         1 Y70      -0.087400
     15 C15          2.2380     0.5000    -1.0310 c          1 Y70       0.721500
     16 N16          3.2530    -0.3350    -0.6370 ns         1 Y70      -0.602500
     17 C17          3.4600    -0.8800     0.6170 c          1 Y70       0.729500
     18 C18          2.5920    -0.3470     1.7190 c6         1 Y70      -0.162400
     19 O19          2.0120     0.7090    -2.1990 o          1 Y70      -0.581500
     20 O20          4.2990    -1.7380     0.7690 o          1 Y70      -0.592500
     21 H1          -4.8970    -1.8230    -0.2860 ha         1 Y70       0.136000
     22 H2          -5.5220     0.4630     0.2240 ha         1 Y70       0.138000
     23 H3          -3.7990     2.2490     0.5380 ha         1 Y70       0.159000
     24 H101        -3.1540    -3.4280    -0.7730 hn         1 Y70       0.447300
     25 H102        -1.4880    -3.0230    -0.7340 hn         1 Y70       0.447300
     26 H12          1.4670     2.2630    -0.2050 h1         1 Y70       0.102700
     27 H141         3.0020     1.7380     1.4470 hc         1 Y70       0.067200
     28 H142         1.4630     1.4250     2.2190 hc         1 Y70       0.067200
     29 H181         3.1580    -0.3980     2.6490 hc         1 Y70       0.084200
     30 H182         1.7440    -1.0270     1.8380 hc         1 Y70       0.084200
     31 H16          3.8120    -0.7290    -1.3870 hn         1 Y70       0.330500
@<TRIPOS>BOND
     1     1     2 ar  
     2     1     6 ar  
     3     1    21 1   
     4     2     3 ar  
     5     2    22 1   
     6     3     4 ar  
     7     3    23 1   
     8     4     5 ar  
     9     4     7 1   
    10     5     6 ar  
    11     5     9 1   
    12     6    10 1   
    13     7     8 1   
    14     7    13 2   
    15     8     9 1   
    16     8    12 1   
    17     9    11 2   
    18    10    24 1   
    19    10    25 1   
    20    12    14 1   
    21    12    15 1   
    22    12    26 1   
    23    14    18 1   
    24    14    27 1   
    25    14    28 1   
    26    15    16 1   
    27    15    19 2   
    28    16    17 1   
    29    16    31 1   
    30    17    18 1   
    31    17    20 2   
    32    18    29 1   
    33    18    30 1   
@<TRIPOS>SUBSTRUCTURE
     1 Y70         1 TEMP              0 ****  ****    0 ROOT
