@<TRIPOS>MOLECULE
Y72
   53    55     1     0     0
SMALL
No Charge or Current Charge


@<TRIPOS>ATOM
      1 C15        -37.8220    71.1520     3.2300 cc         1 Y72      -0.281000
      2 C17        -38.1880    75.0910     3.3220 c          1 Y72       0.614700
      3 C20        -37.6730    77.3740     4.3560 c3         1 Y72      -0.018300
      4 C16        -37.0860    71.5990     4.3060 cd         1 Y72      -0.130300
      5 C09        -38.9390    65.4520     5.2950 cc         1 Y72       0.172400
      6 C06        -37.5430    65.9050     6.9990 cd         1 Y72      -0.138000
      7 O18        -38.8900    75.5400     2.4280 o          1 Y72      -0.631100
      8 C12        -37.1540    73.0190     4.4290 cd         1 Y72       0.127000
      9 C04        -37.6960    66.1200     3.2700 c          1 Y72       0.613600
     10 C02        -39.8950    65.2100     3.2840 cd         1 Y72       0.674800
     11 C07        -38.7830    65.4130     6.6850 cc         1 Y72      -0.189000
     12 C08        -37.8130    65.9590     4.7260 cd         1 Y72      -0.309600
     13 C13        -37.9200    73.6460     3.4740 cc         1 Y72      -0.242600
     14 C21        -37.0580    78.0760     3.1070 c3         1 Y72      -0.034400
     15 C22        -36.7400    79.5870     3.2750 c3         1 Y72      -0.190400
     16 C23        -35.6160    79.8200     4.3020 c          1 Y72       0.704000
     17 C26        -39.1280    77.8180     4.7380 c          1 Y72       0.722000
     18 C29        -35.5860    66.8420     5.6670 c3         1 Y72       0.068600
     19 C30        -35.5490    68.3600     5.9620 c3         1 Y72      -0.092400
     20 C31        -36.3640    69.2150     4.9640 c3         1 Y72      -0.079400
     21 C32        -36.2930    70.7300     5.2600 c3         1 Y72       0.000900
     22 F33        -36.4940    73.6380     5.4250 f          1 Y72      -0.163000
     23 N01        -40.0390    65.0510     4.5790 nc         1 Y72      -0.659100
     24 N03        -38.8200    65.7030     2.6360 ns         1 Y72      -0.444400
     25 N05        -36.9310    66.2500     5.7820 na         1 Y72       0.054000
     26 N19        -37.5880    75.8940     4.2700 ns         1 Y72      -0.411900
     27 O24        -35.9240    80.0290     5.4650 o          1 Y72      -0.770500
     28 O25        -34.4590    79.7630     3.9140 o          1 Y72      -0.770500
     29 O27        -39.8280    78.4030     3.9210 o          1 Y72      -0.741500
     30 O28        -39.5140    77.5700     5.8730 o          1 Y72      -0.741500
     31 S14        -38.6010    72.4740     2.3640 ss         1 Y72       0.283000
     32 H1         -37.9690    70.1410     2.8730 h4         1 Y72       0.132000
     33 H2         -37.0540    77.6520     5.2160 h1         1 Y72       0.067700
     34 H3         -37.0590    66.0390     7.9600 h4         1 Y72       0.145000
     35 H4         -39.5330    65.0520     7.3810 ha         1 Y72       0.143000
     36 H5         -36.1260    77.5620     2.8390 hc         1 Y72       0.020700
     37 H6         -37.7280    77.9520     2.2480 hc         1 Y72       0.020700
     38 H7         -36.4060    79.9140     2.2830 hc         1 Y72       0.026200
     39 H8         -37.6670    80.0730     3.6010 hc         1 Y72       0.026200
     40 H9         -35.1850    66.6500     4.6650 h1         1 Y72       0.066200
     41 H10        -34.9300    66.3280     6.3800 h1         1 Y72       0.066200
     42 H11        -34.5030    68.6910     5.9450 hc         1 Y72       0.047700
     43 H12        -35.9190    68.5360     6.9800 hc         1 Y72       0.047700
     44 H13        -37.4140    68.8990     4.9880 hc         1 Y72       0.052700
     45 H14        -35.9930    69.0300     3.9480 hc         1 Y72       0.052700
     46 H15        -35.2420    71.0420     5.2420 hc         1 Y72       0.048700
     47 H16        -36.6470    70.9030     6.2840 hc         1 Y72       0.048700
     48 H17        -38.8290    65.7960     1.6340 hn         1 Y72       0.322500
     49 H18        -41.6270    64.2950     3.0330 hn         1 Y72       0.477000
     50 H19        -40.7420    64.5440     1.5850 hn         1 Y72       0.477000
     51 H20        -37.0470    75.4070     4.9740 hn         1 Y72       0.305500
     52 N11        -40.9260    64.8330     2.5380 nv         1 Y72      -1.024200
     53 O10        -36.7300    66.5640     2.6720 o          1 Y72      -0.566000
@<TRIPOS>BOND
     1     1     4 2   
     2     1    31 1   
     3     1    32 1   
     4     2     7 2   
     5     2    13 1   
     6     2    26 1   
     7     3    14 1   
     8     3    17 1   
     9     3    26 1   
    10     3    33 1   
    11     4     8 1   
    12     4    21 1   
    13     5    11 1   
    14     5    12 2   
    15     5    23 1   
    16     6    11 2   
    17     6    25 1   
    18     6    34 1   
    19     8    13 2   
    20     8    22 1   
    21     9    12 1   
    22     9    24 1   
    23     9    53 2   
    24    10    23 2   
    25    10    24 1   
    26    10    52 1   
    27    11    35 1   
    28    12    25 1   
    29    13    31 1   
    30    14    15 1   
    31    14    36 1   
    32    14    37 1   
    33    15    16 1   
    34    15    38 1   
    35    15    39 1   
    36    16    27 1   
    37    16    28 1   
    38    17    29 1   
    39    17    30 1   
    40    18    19 1   
    41    18    25 1   
    42    18    40 1   
    43    18    41 1   
    44    19    20 1   
    45    19    42 1   
    46    19    43 1   
    47    20    21 1   
    48    20    44 1   
    49    20    45 1   
    50    21    46 1   
    51    21    47 1   
    52    24    48 1   
    53    26    51 1   
    54    49    52 1   
    55    50    52 1   
@<TRIPOS>SUBSTRUCTURE
     1 Y72         1 TEMP              0 ****  ****    0 ROOT
