@<TRIPOS>MOLECULE
Y72
   53    55     1     0     0
SMALL
abcg2


@<TRIPOS>ATOM
      1 C15        -37.9750    71.0870     3.5480 cc         1 Y72      -0.281000
      2 C17        -38.2940    74.9940     3.5720 c          1 Y72       0.614700
      3 C20        -37.8180    77.3100     4.3000 c3         1 Y72      -0.018300
      4 C16        -37.0970    71.4930     4.5180 cd         1 Y72      -0.130300
      5 C09        -38.9490    65.6720     5.1980 cc         1 Y72       0.172400
      6 C06        -37.5220    65.9910     6.8990 cd         1 Y72      -0.138000
      7 O18        -39.1360    75.3350     2.7320 o          1 Y72      -0.631100
      8 C12        -37.1300    72.9070     4.6160 cd         1 Y72       0.127000
      9 C04        -37.4920    66.2070     3.2890 c          1 Y72       0.613600
     10 C02        -39.8630    65.5320     3.1340 cd         1 Y72       0.674800
     11 C07        -38.8220    65.6210     6.6090 cc         1 Y72      -0.189000
     12 C08        -37.7010    66.0710     4.6880 cd         1 Y72      -0.309600
     13 C13        -37.9840    73.5610     3.7690 cc         1 Y72      -0.242600
     14 C21        -37.2650    77.9330     3.0130 c3         1 Y72      -0.034400
     15 C22        -36.7760    79.3650     3.2040 c3         1 Y72      -0.190400
     16 C23        -35.5170    79.5450     4.0780 c          1 Y72       0.704000
     17 C26        -39.2920    77.6990     4.6560 c          1 Y72       0.722000
     18 C29        -35.4850    66.8080     5.6970 c3         1 Y72       0.068600
     19 C30        -35.4490    68.3030     6.0070 c3         1 Y72      -0.092400
     20 C31        -36.3220    69.1390     5.0770 c3         1 Y72      -0.079400
     21 C32        -36.2190    70.6300     5.3770 c3         1 Y72       0.000900
     22 F33        -36.3450    73.5470     5.5110 f          1 Y72      -0.163000
     23 N01        -40.0400    65.3890     4.4190 nc         1 Y72      -0.659100
     24 N03        -38.6670    65.9200     2.5800 ns         1 Y72      -0.444400
     25 N05        -36.8380    66.2550     5.7500 na         1 Y72       0.054000
     26 N19        -37.6220    75.8630     4.3410 ns         1 Y72      -0.411900
     27 O24        -35.2840    80.7220     4.4690 o          1 Y72      -0.770500
     28 O25        -34.8030    78.5380     4.3230 o          1 Y72      -0.770500
     29 O27        -39.8140    78.6360     4.0080 o          1 Y72      -0.741500
     30 O28        -39.8120    77.0690     5.6100 o          1 Y72      -0.741500
     31 S14        -38.8020    72.3890     2.7920 ss         1 Y72       0.283000
     32 H1         -38.1810    70.0770     3.2340 h4         1 Y72       0.132000
     33 H2         -37.2200    77.6850     5.1330 h1         1 Y72       0.067700
     34 H3         -37.0290    66.0880     7.8540 h4         1 Y72       0.145000
     35 H4         -39.5810    65.3410     7.3200 ha         1 Y72       0.143000
     36 H5         -36.4270    77.3200     2.6750 hc         1 Y72       0.020700
     37 H6         -38.0320    77.9040     2.2400 hc         1 Y72       0.020700
     38 H7         -36.5370    79.8020     2.2280 hc         1 Y72       0.026200
     39 H8         -37.5700    79.9850     3.6220 hc         1 Y72       0.026200
     40 H9         -35.0990    66.6140     4.6990 h1         1 Y72       0.066200
     41 H10        -34.8740    66.2600     6.4140 h1         1 Y72       0.066200
     42 H11        -34.4070    68.6290     5.9350 hc         1 Y72       0.047700
     43 H12        -35.7590    68.4620     7.0440 hc         1 Y72       0.047700
     44 H13        -37.3640    68.8230     5.1760 hc         1 Y72       0.052700
     45 H14        -36.0360    68.9490     4.0390 hc         1 Y72       0.052700
     46 H15        -35.1810    70.9590     5.2580 hc         1 Y72       0.048700
     47 H16        -36.4690    70.8120     6.4270 hc         1 Y72       0.048700
     48 H17        -38.5960    66.0190     1.5760 hn         1 Y72       0.322500
     49 H18        -41.6940    64.8630     2.6530 hn         1 Y72       0.477000
     50 H19        -40.6850    65.1090     1.3100 hn         1 Y72       0.477000
     51 H20        -36.9670    75.4980     5.0130 hn         1 Y72       0.305500
     52 N11        -40.9010    65.3500     2.2660 nv         1 Y72      -1.024200
     53 O10        -36.4680    66.5250     2.6760 o          1 Y72      -0.566000
@<TRIPOS>BOND
     1     1     4 2   
     2     1    31 1   
     3     1    32 1   
     4     2     7 2   
     5     2    13 1   
     6     2    26 1   
     7     3    14 1   
     8     3    17 1   
     9     3    26 1   
    10     3    33 1   
    11     4     8 1   
    12     4    21 1   
    13     5    11 1   
    14     5    12 2   
    15     5    23 1   
    16     6    11 2   
    17     6    25 1   
    18     6    34 1   
    19     8    13 2   
    20     8    22 1   
    21     9    12 1   
    22     9    24 1   
    23     9    53 2   
    24    10    23 2   
    25    10    24 1   
    26    10    52 1   
    27    11    35 1   
    28    12    25 1   
    29    13    31 1   
    30    14    15 1   
    31    14    36 1   
    32    14    37 1   
    33    15    16 1   
    34    15    38 1   
    35    15    39 1   
    36    16    27 1   
    37    16    28 1   
    38    17    29 1   
    39    17    30 1   
    40    18    19 1   
    41    18    25 1   
    42    18    40 1   
    43    18    41 1   
    44    19    20 1   
    45    19    42 1   
    46    19    43 1   
    47    20    21 1   
    48    20    44 1   
    49    20    45 1   
    50    21    46 1   
    51    21    47 1   
    52    24    48 1   
    53    26    51 1   
    54    49    52 1   
    55    50    52 1   
@<TRIPOS>SUBSTRUCTURE
     1 Y72         1 TEMP              0 ****  ****    0 ROOT
