@<TRIPOS>MOLECULE
Y74
   85    88     1     0     0
SMALL
abcg2


@<TRIPOS>ATOM
      1 C14         14.5290   -20.4440   -42.5160 ca         1 Y74      -0.071000
      2 C10         15.3970   -20.4410   -44.7680 ca         1 Y74       0.144100
      3 C12         16.8680   -18.7770   -45.5810 c3         1 Y74       0.148900
      4 C13         15.3150   -19.8650   -43.5050 ca         1 Y74      -0.192000
      5 C02         15.6410   -24.1170   -39.9280 c          1 Y74       0.605300
      6 C04         13.5800   -23.4820   -41.0620 c3         1 Y74       0.036700
      7 C05         12.9530   -22.2270   -41.6800 c3         1 Y74      -0.039100
      8 C06         13.8050   -21.6040   -42.7490 ca         1 Y74      -0.103300
      9 C07         13.8900   -22.1860   -44.0130 ca         1 Y74      -0.059000
     10 C08         14.6700   -21.6150   -44.9990 ca         1 Y74       0.083000
     11 C15         12.5610   -24.1220   -40.1040 c          1 Y74       0.592100
     12 C17         11.8190   -24.0960   -37.7380 c3         1 Y74       0.113000
     13 C18         12.4950   -25.0520   -36.7400 c3         1 Y74      -0.121000
     14 C19         12.9110   -26.3540   -37.4390 c3         1 Y74      -0.083600
     15 C20         11.4860   -25.3600   -35.6290 c3         1 Y74      -0.083600
     16 C21         13.7480   -24.4070   -36.1720 c          1 Y74       0.612100
     17 C23         15.5080   -24.6480   -34.6410 c3         1 Y74       0.145300
     18 C24         15.6950   -25.2550   -33.2650 c3         1 Y74      -0.221400
     19 C25         14.7350   -24.6560   -32.2050 c          1 Y74       0.730000
     20 C30         16.7730   -23.6270   -39.1110 ce         1 Y74      -0.290200
     21 C31         17.6630   -24.4700   -38.5930 c2         1 Y74      -0.129200
     22 C32         18.7910   -24.0680   -37.7050 c3         1 Y74      -0.071200
     23 C33         18.7870   -24.8230   -36.3750 c3         1 Y74       0.179300
     24 C35         16.5430   -25.1710   -35.6220 c          1 Y74       0.564100
     25 C37         20.0270   -24.5650   -35.5210 c3         1 Y74      -0.050700
     26 C38         20.0200   -25.4060   -34.2470 c3         1 Y74      -0.086100
     27 C39         20.1880   -23.1020   -35.1930 cx         1 Y74       0.107300
     28 C40         21.0290   -22.2070   -35.9940 cx         1 Y74       0.120600
     29 C42         20.7230   -20.7600   -36.1090 ca         1 Y74      -0.075300
     30 C43         20.5610   -20.2010   -37.3750 ca         1 Y74      -0.091500
     31 C44         20.2320   -18.8610   -37.5160 ca         1 Y74      -0.112500
     32 C45         20.0710   -18.0610   -36.3920 ca         1 Y74      -0.109000
     33 C46         20.2410   -18.6110   -35.1280 ca         1 Y74      -0.112500
     34 C47         20.5670   -19.9530   -34.9860 ca         1 Y74      -0.091500
     35 N03         14.8220   -23.1530   -40.4090 ns         1 Y74      -0.516900
     36 N16         12.6440   -23.6830   -38.8430 ns         1 Y74      -0.487900
     37 O11         16.1150   -19.9560   -45.7890 os         1 Y74      -0.326100
     38 O22         14.2250   -25.0520   -35.1150 os         1 Y74      -0.383100
     39 O26         14.3040   -23.5090   -32.4240 o          1 Y74      -0.724000
     40 O27         14.5170   -25.3710   -31.2120 o          1 Y74      -0.724000
     41 O28         14.2970   -23.4360   -36.6350 o          1 Y74      -0.538000
     42 O29         11.7240   -24.9070   -40.5220 o          1 Y74      -0.614100
     43 O34         17.6380   -24.4290   -35.6030 os         1 Y74      -0.441100
     44 O36         16.3860   -26.1570   -36.2920 o          1 Y74      -0.494000
     45 O41         21.4680   -22.6940   -34.7400 op         1 Y74      -0.438000
     46 CL09        14.7490   -22.3500   -46.5630 cl         1 Y74      -0.191000
     47 H141        14.4770   -19.9650   -41.5460 ha         1 Y74       0.113000
     48 H123        17.3740   -18.5670   -46.5200 h1         1 Y74       0.041367
     49 H122        16.2310   -17.9270   -45.3250 h1         1 Y74       0.041367
     50 H121        17.6180   -18.9080   -44.7970 h1         1 Y74       0.041367
     51 H131        15.8550   -18.9570   -43.2740 ha         1 Y74       0.118000
     52 H041        13.7630   -24.2140   -41.8510 h1         1 Y74       0.095700
     53 H051        11.9830   -22.5090   -42.0950 hc         1 Y74       0.063700
     54 H052        12.7580   -21.4940   -40.8930 hc         1 Y74       0.063700
     55 H071        13.3360   -23.0900   -44.2350 ha         1 Y74       0.136000
     56 H171        10.9290   -24.5890   -38.1290 h1         1 Y74       0.056700
     57 H172        11.4800   -23.2030   -37.2070 h1         1 Y74       0.056700
     58 H192        13.3360   -27.0650   -36.7320 hc         1 Y74       0.049533
     59 H191        12.0330   -26.8150   -37.8920 hc         1 Y74       0.049533
     60 H193        13.6450   -26.1790   -38.2250 hc         1 Y74       0.049533
     61 H203        11.8770   -26.0850   -34.9180 hc         1 Y74       0.049533
     62 H201        11.2000   -24.4620   -35.0800 hc         1 Y74       0.049533
     63 H202        10.5820   -25.7830   -36.0690 hc         1 Y74       0.049533
     64 H231        15.5690   -23.5620   -34.5660 h1         1 Y74       0.111700
     65 H241        15.5960   -26.3420   -33.3080 hc         1 Y74       0.042700
     66 H242        16.7200   -25.0540   -32.9360 hc         1 Y74       0.042700
     67 H301        16.8390   -22.5630   -38.9080 ha         1 Y74       0.178000
     68 H311        17.5760   -25.5290   -38.8130 ha         1 Y74       0.202000
     69 H321        19.7350   -24.3110   -38.2030 hc         1 Y74       0.055200
     70 H322        18.7840   -22.9880   -37.5390 hc         1 Y74       0.055200
     71 H331        18.7370   -25.8970   -36.5760 h1         1 Y74       0.070700
     72 H371        20.8800   -24.8780   -36.1330 hc         1 Y74       0.048700
     73 H381        20.9650   -25.3020   -33.7150 hc         1 Y74       0.046700
     74 H382        19.2220   -25.1090   -33.5650 hc         1 Y74       0.046700
     75 H383        19.8880   -26.4630   -34.4800 hc         1 Y74       0.046700
     76 H391        19.3620   -22.6460   -34.6470 h1         1 Y74       0.115700
     77 H401        21.5420   -22.6370   -36.8550 h1         1 Y74       0.081700
     78 H431        20.6940   -20.8200   -38.2550 ha         1 Y74       0.119000
     79 H441        20.1070   -18.4390   -38.5060 ha         1 Y74       0.110000
     80 H451        19.8190   -17.0140   -36.5010 ha         1 Y74       0.108000
     81 H461        20.1240   -17.9920   -34.2480 ha         1 Y74       0.110000
     82 H471        20.7040   -20.3670   -33.9950 ha         1 Y74       0.119000
     83 H031        15.0320   -22.1860   -40.2110 hn         1 Y74       0.316500
     84 H161        13.3980   -23.0570   -38.6110 hn         1 Y74       0.333500
     85 O01         15.4260   -25.3030   -40.1390 o          1 Y74      -0.593100
@<TRIPOS>BOND
     1     1     4 ar  
     2     1     8 ar  
     3     1    47 1   
     4     2     4 ar  
     5     2    10 ar  
     6     2    37 1   
     7     3    37 1   
     8     3    48 1   
     9     3    49 1   
    10     3    50 1   
    11     4    51 1   
    12     5    20 1   
    13     5    35 1   
    14     5    85 2   
    15     6     7 1   
    16     6    11 1   
    17     6    35 1   
    18     6    52 1   
    19     7     8 1   
    20     7    53 1   
    21     7    54 1   
    22     8     9 ar  
    23     9    10 ar  
    24     9    55 1   
    25    10    46 1   
    26    11    36 1   
    27    11    42 2   
    28    12    13 1   
    29    12    36 1   
    30    12    56 1   
    31    12    57 1   
    32    13    14 1   
    33    13    15 1   
    34    13    16 1   
    35    14    58 1   
    36    14    59 1   
    37    14    60 1   
    38    15    61 1   
    39    15    62 1   
    40    15    63 1   
    41    16    38 1   
    42    16    41 2   
    43    17    18 1   
    44    17    24 1   
    45    17    38 1   
    46    17    64 1   
    47    18    19 1   
    48    18    65 1   
    49    18    66 1   
    50    19    39 1   
    51    19    40 1   
    52    20    21 2   
    53    20    67 1   
    54    21    22 1   
    55    21    68 1   
    56    22    23 1   
    57    22    69 1   
    58    22    70 1   
    59    23    25 1   
    60    23    43 1   
    61    23    71 1   
    62    24    43 1   
    63    24    44 2   
    64    25    26 1   
    65    25    27 1   
    66    25    72 1   
    67    26    73 1   
    68    26    74 1   
    69    26    75 1   
    70    27    28 1   
    71    27    45 1   
    72    27    76 1   
    73    28    29 1   
    74    28    45 1   
    75    28    77 1   
    76    29    30 ar  
    77    29    34 ar  
    78    30    31 ar  
    79    30    78 1   
    80    31    32 ar  
    81    31    79 1   
    82    32    33 ar  
    83    32    80 1   
    84    33    34 ar  
    85    33    81 1   
    86    34    82 1   
    87    35    83 1   
    88    36    84 1   
@<TRIPOS>SUBSTRUCTURE
     1 Y74         1 TEMP              0 ****  ****    0 ROOT
