@<TRIPOS>MOLECULE
Y74
   85    88     1     0     0
SMALL
No Charge or Current Charge


@<TRIPOS>ATOM
      1 C14         14.4600   -20.4690   -42.8040 ca         1 Y74      -0.071000
      2 C10         15.9200   -20.9710   -44.6990 ca         1 Y74       0.144100
      3 C12         17.5820   -19.3530   -45.5570 c3         1 Y74       0.148900
      4 C13         15.4790   -20.0820   -43.6920 ca         1 Y74      -0.192000
      5 C02         15.5040   -23.9750   -40.1840 c          1 Y74       0.605300
      6 C04         13.1980   -23.3460   -41.0220 c3         1 Y74       0.036700
      7 C05         12.7740   -22.1670   -41.9300 c3         1 Y74      -0.039100
      8 C06         13.8690   -21.7430   -42.9050 ca         1 Y74      -0.103300
      9 C07         14.3060   -22.6270   -43.9100 ca         1 Y74      -0.059000
     10 C08         15.3240   -22.2460   -44.8000 ca         1 Y74       0.083000
     11 C15         12.0880   -23.7140   -39.9900 c          1 Y74       0.592100
     12 C17         11.6350   -23.9040   -37.4970 c3         1 Y74       0.113000
     13 C18         12.3500   -24.8750   -36.5070 c3         1 Y74      -0.121000
     14 C19         12.5340   -26.2650   -37.1800 c3         1 Y74      -0.083600
     15 C20         11.4560   -25.0320   -35.2440 c3         1 Y74      -0.083600
     16 C21         13.7520   -24.3310   -36.0900 c          1 Y74       0.612100
     17 C23         15.7090   -24.7910   -34.7480 c3         1 Y74       0.145300
     18 C24         15.9980   -25.4900   -33.3970 c3         1 Y74      -0.221400
     19 C25         15.2410   -24.7740   -32.2790 c          1 Y74       0.730000
     20 C30         16.6490   -23.4780   -39.3770 ce         1 Y74      -0.290200
     21 C31         17.5940   -24.2890   -38.8460 c2         1 Y74      -0.129200
     22 C32         18.7260   -23.8500   -37.9380 c3         1 Y74      -0.071200
     23 C33         18.9550   -24.7800   -36.7090 c3         1 Y74       0.179300
     24 C35         16.7120   -25.2240   -35.8530 c          1 Y74       0.564100
     25 C37         20.3060   -24.5340   -35.9740 c3         1 Y74      -0.050700
     26 C38         20.5580   -25.6060   -34.8850 c3         1 Y74      -0.086100
     27 C39         20.4120   -23.1270   -35.3760 cx         1 Y74       0.107300
     28 C40         20.8430   -21.9600   -36.2200 cx         1 Y74       0.120600
     29 C42         20.3170   -20.5700   -35.9740 ca         1 Y74      -0.075300
     30 C43         19.8420   -19.8060   -37.0580 ca         1 Y74      -0.091500
     31 C44         19.3360   -18.5110   -36.8500 ca         1 Y74      -0.112500
     32 C45         19.3020   -17.9680   -35.5550 ca         1 Y74      -0.109000
     33 C46         19.7730   -18.7230   -34.4680 ca         1 Y74      -0.112500
     34 C47         20.2780   -20.0180   -34.6750 ca         1 Y74      -0.091500
     35 N03         14.4960   -23.0570   -40.3540 ns         1 Y74      -0.516900
     36 N16         12.4500   -23.5780   -38.6680 ns         1 Y74      -0.487900
     37 O11         16.9210   -20.6300   -45.5920 os         1 Y74      -0.326100
     38 O22         14.3470   -25.1070   -35.1270 os         1 Y74      -0.383100
     39 O26         15.7640   -23.7910   -31.7790 o          1 Y74      -0.724000
     40 O27         14.1410   -25.1950   -31.9580 o          1 Y74      -0.724000
     41 O28         14.2730   -23.3240   -36.5550 o          1 Y74      -0.538000
     42 O29         10.9760   -24.1040   -40.3230 o          1 Y74      -0.614100
     43 O34         17.9050   -24.5490   -35.7440 os         1 Y74      -0.441100
     44 O36         16.4650   -26.0580   -36.7160 o          1 Y74      -0.494000
     45 O41         21.7350   -22.5580   -35.2480 op         1 Y74      -0.438000
     46 Cl09        15.8430   -23.3890   -46.0420 cl         1 Y74      -0.191000
     47 H141        14.1330   -19.7750   -42.0320 ha         1 Y74       0.113000
     48 H123        18.3390   -19.2960   -46.3500 h1         1 Y74       0.041367
     49 H122        16.8650   -18.5370   -45.7130 h1         1 Y74       0.041367
     50 H121        18.0870   -19.2010   -44.5950 h1         1 Y74       0.041367
     51 H131        15.9120   -19.0920   -43.5820 ha         1 Y74       0.118000
     52 H041        13.3230   -24.2350   -41.6540 h1         1 Y74       0.095700
     53 H051        11.8740   -22.4530   -42.4890 hc         1 Y74       0.063700
     54 H052        12.4780   -21.3220   -41.2960 hc         1 Y74       0.063700
     55 H071        13.8590   -23.6140   -44.0030 ha         1 Y74       0.136000
     56 H171        10.6810   -24.3440   -37.8180 h1         1 Y74       0.056700
     57 H172        11.4050   -22.9630   -36.9780 h1         1 Y74       0.056700
     58 H192        12.9690   -26.9900   -36.4810 hc         1 Y74       0.049533
     59 H191        11.5730   -26.6660   -37.5240 hc         1 Y74       0.049533
     60 H193        13.2030   -26.1970   -38.0470 hc         1 Y74       0.049533
     61 H203        11.8790   -25.7580   -34.5390 hc         1 Y74       0.049533
     62 H201        11.3520   -24.0740   -34.7190 hc         1 Y74       0.049533
     63 H202        10.4510   -25.3790   -35.5160 hc         1 Y74       0.049533
     64 H231        15.8420   -23.7090   -34.6110 h1         1 Y74       0.111700
     65 H241        15.6740   -26.5330   -33.4970 hc         1 Y74       0.042700
     66 H242        17.0770   -25.3780   -33.2370 hc         1 Y74       0.042700
     67 H301        16.6490   -22.4140   -39.1490 ha         1 Y74       0.178000
     68 H311        17.5720   -25.3630   -39.0510 ha         1 Y74       0.202000
     69 H321        19.6500   -23.8130   -38.5280 hc         1 Y74       0.055200
     70 H322        18.5430   -22.8280   -37.5860 hc         1 Y74       0.055200
     71 H331        18.9600   -25.8250   -37.0500 h1         1 Y74       0.070700
     72 H371        21.1040   -24.6540   -36.7180 hc         1 Y74       0.048700
     73 H381        21.5470   -25.4690   -34.4310 hc         1 Y74       0.046700
     74 H382        19.8070   -25.5460   -34.0880 hc         1 Y74       0.046700
     75 H383        20.5220   -26.6140   -35.3160 hc         1 Y74       0.046700
     76 H391        19.7350   -22.9320   -34.5430 h1         1 Y74       0.115700
     77 H401        21.1220   -22.1500   -37.2570 h1         1 Y74       0.081700
     78 H431        19.8600   -20.2170   -38.0660 ha         1 Y74       0.119000
     79 H441        18.9710   -17.9280   -37.6930 ha         1 Y74       0.110000
     80 H451        18.9110   -16.9660   -35.3940 ha         1 Y74       0.108000
     81 H461        19.7470   -18.3040   -33.4640 ha         1 Y74       0.110000
     82 H471        20.6410   -20.5900   -33.8240 ha         1 Y74       0.119000
     83 H031        14.6740   -22.1160   -40.0210 hn         1 Y74       0.316500
     84 H161        13.3970   -23.2560   -38.5000 hn         1 Y74       0.333500
     85 O01         15.4190   -25.1230   -40.5900 o          1 Y74      -0.593100
@<TRIPOS>BOND
     1     1     4 ar  
     2     1     8 ar  
     3     1    47 1   
     4     2     4 ar  
     5     2    10 ar  
     6     2    37 1   
     7     3    37 1   
     8     3    48 1   
     9     3    49 1   
    10     3    50 1   
    11     4    51 1   
    12     5    20 1   
    13     5    35 1   
    14     5    85 2   
    15     6     7 1   
    16     6    11 1   
    17     6    35 1   
    18     6    52 1   
    19     7     8 1   
    20     7    53 1   
    21     7    54 1   
    22     8     9 ar  
    23     9    10 ar  
    24     9    55 1   
    25    10    46 1   
    26    11    36 1   
    27    11    42 2   
    28    12    13 1   
    29    12    36 1   
    30    12    56 1   
    31    12    57 1   
    32    13    14 1   
    33    13    15 1   
    34    13    16 1   
    35    14    58 1   
    36    14    59 1   
    37    14    60 1   
    38    15    61 1   
    39    15    62 1   
    40    15    63 1   
    41    16    38 1   
    42    16    41 2   
    43    17    18 1   
    44    17    24 1   
    45    17    38 1   
    46    17    64 1   
    47    18    19 1   
    48    18    65 1   
    49    18    66 1   
    50    19    39 1   
    51    19    40 1   
    52    20    21 2   
    53    20    67 1   
    54    21    22 1   
    55    21    68 1   
    56    22    23 1   
    57    22    69 1   
    58    22    70 1   
    59    23    25 1   
    60    23    43 1   
    61    23    71 1   
    62    24    43 1   
    63    24    44 2   
    64    25    26 1   
    65    25    27 1   
    66    25    72 1   
    67    26    73 1   
    68    26    74 1   
    69    26    75 1   
    70    27    28 1   
    71    27    45 1   
    72    27    76 1   
    73    28    29 1   
    74    28    45 1   
    75    28    77 1   
    76    29    30 ar  
    77    29    34 ar  
    78    30    31 ar  
    79    30    78 1   
    80    31    32 ar  
    81    31    79 1   
    82    32    33 ar  
    83    32    80 1   
    84    33    34 ar  
    85    33    81 1   
    86    34    82 1   
    87    35    83 1   
    88    36    84 1   
@<TRIPOS>SUBSTRUCTURE
     1 Y74         1 TEMP              0 ****  ****    0 ROOT
