@<TRIPOS>MOLECULE
Y75
  105   110     1     0     0
SMALL
No Charge or Current Charge


@<TRIPOS>ATOM
      1 C02        152.4230   134.6220   120.4980 c          1 Y75       0.599100
      2 C03        151.2450   133.7860   121.1130 c3         1 Y75       0.047700
      3 C05        149.5060   135.5480   120.5670 c          1 Y75       0.615100
      4 C06        148.0560   135.7350   119.9930 c3         1 Y75       0.104500
      5 C08        146.8160   135.7830   122.2400 c3         1 Y75       0.218100
      6 C09        147.9380   135.3410   123.1780 ca         1 Y75      -0.121300
      7 C10        148.8350   136.2550   123.7890 ca         1 Y75       0.476300
      8 C12        149.6870   138.7320   124.7910 ca         1 Y75      -0.111000
      9 C13        149.1340   138.7700   126.0890 ca         1 Y75       0.166000
     10 C15        149.8520   139.3400   127.1460 ca         1 Y75      -0.115000
     11 C16        151.1150   139.8970   126.9130 ca         1 Y75      -0.076000
     12 C17        151.6910   139.8920   125.6220 cp         1 Y75      -0.001000
     13 C18        153.0190   140.5520   125.4480 cp         1 Y75      -0.146000
     14 C19        154.1570   140.1000   126.1530 ca         1 Y75      -0.002000
     15 C20        155.3720   140.7770   125.9740 ca         1 Y75      -0.233000
     16 C21        155.3960   141.8720   125.1090 ca         1 Y75       0.598900
     17 C24        153.1790   141.6900   124.6160 ca         1 Y75       0.390900
     18 C25        150.9790   139.2740   124.5470 ca         1 Y75      -0.030300
     19 C26        151.5920   139.1660   123.1390 c3         1 Y75       0.150300
     20 C29        149.9300   134.5350   124.9090 ca         1 Y75       0.343900
     21 C30        149.0890   133.5660   124.3490 ca         1 Y75      -0.185000
     22 C31        148.0760   133.9700   123.4680 ca         1 Y75      -0.051000
     23 C32        147.7380   137.1930   119.5490 c3         1 Y75      -0.093400
     24 C33        148.6140   137.7440   118.3930 c3         1 Y75      -0.079400
     25 C34        148.4390   136.9930   117.0550 c3         1 Y75       0.150800
     26 C37        151.4130   132.2740   120.8210 c3         1 Y75      -0.096400
     27 C38        150.4490   131.3750   121.6360 c3         1 Y75      -0.073400
     28 C39        150.6010   129.8610   121.3580 c3         1 Y75      -0.083400
     29 C40        150.1730   129.4350   119.9370 c3         1 Y75       0.149800
     30 C44        153.1810   135.6310   122.7670 c3         1 Y75       0.041700
     31 C45        154.4960   134.9890   123.2870 c3         1 Y75      -0.008200
     32 C46        154.6480   133.5450   122.8890 cc         1 Y75      -0.146400
     33 C47        155.4570   133.0210   121.8850 cd         1 Y75      -0.145100
     34 C49        154.4010   131.2960   122.8360 ca         1 Y75      -0.053200
     35 C50        153.9790   132.4230   123.4810 ca         1 Y75      -0.098800
     36 C51        153.0540   132.3730   124.5330 ca         1 Y75      -0.062000
     37 C52        152.5500   131.1110   124.9100 ca         1 Y75      -0.143000
     38 C53        152.9820   129.9410   124.2400 ca         1 Y75      -0.091000
     39 C54        153.9220   130.0280   123.1910 ca         1 Y75      -0.137000
     40 C55        152.9450   137.0480   123.3760 c          1 Y75       0.584100
     41 N04        149.9530   134.2460   120.5630 ns         1 Y75      -0.474900
     42 N07        146.9600   135.2070   120.8800 n7         1 Y75      -0.884400
     43 N22        156.4880   142.5980   124.8680 nv         1 Y75      -1.058900
     44 N23        154.3520   142.3430   124.4440 nb         1 Y75      -0.748000
     45 N27        151.9660   137.7980   122.7640 ns         1 Y75      -0.487900
     46 N28        149.8170   135.8490   124.6330 nb         1 Y75      -0.674000
     47 N35        149.2300   137.6160   115.9800 n8         1 Y75      -0.989200
     48 N41        150.2680   127.9750   119.7600 n8         1 Y75      -0.996200
     49 N42        153.1220   135.6060   121.2610 n          1 Y75      -0.399800
     50 N48        155.3100   131.6130   121.8430 na         1 Y75      -0.224700
     51 O01        152.7060   134.4740   119.3120 o          1 Y75      -0.594100
     52 O36        150.2020   136.4660   120.9830 o          1 Y75      -0.633100
     53 O56        153.6240   137.5050   124.2860 o          1 Y75      -0.611100
     54 S11        148.7190   138.0230   123.4480 ss         1 Y75      -0.140300
     55 Cl14       147.5260   138.1190   126.4170 cl         1 Y75      -0.188000
     56 H1         151.2040   133.9100   122.1950 h1         1 Y75       0.065700
     57 H2         148.0430   135.1250   119.0800 h1         1 Y75       0.062700
     58 H3         146.7250   136.8740   122.1940 h1         1 Y75       0.054200
     59 H4         145.8740   135.4260   122.6800 h1         1 Y75       0.054200
     60 H5         149.4210   139.3640   128.1430 ha         1 Y75       0.129000
     61 H6         151.6520   140.3580   127.7390 ha         1 Y75       0.119000
     62 H7         154.0940   139.2380   126.8150 ha         1 Y75       0.126000
     63 H8         156.2700   140.4560   126.4900 ha         1 Y75       0.121000
     64 H9         152.3260   142.0910   124.0690 h4         1 Y75       0.015100
     65 H10        152.4880   139.7890   123.0470 h1         1 Y75       0.066200
     66 H11        150.8720   139.5440   122.4010 h1         1 Y75       0.066200
     67 H12        150.7180   134.2530   125.6040 h4         1 Y75       0.020100
     68 H13        149.2210   132.5180   124.6020 ha         1 Y75       0.125000
     69 H14        147.4080   133.2370   123.0200 ha         1 Y75       0.129000
     70 H15        147.8470   137.8640   120.4100 hc         1 Y75       0.047700
     71 H16        146.6870   137.2550   119.2420 hc         1 Y75       0.047700
     72 H17        149.6710   137.7260   118.6830 hc         1 Y75       0.060200
     73 H18        148.3530   138.7990   118.2410 hc         1 Y75       0.060200
     74 H19        147.3810   136.9990   116.7600 h1         1 Y75       0.021700
     75 H20        148.7680   135.9500   117.1620 h1         1 Y75       0.021700
     76 H21        152.4420   131.9830   121.0540 hc         1 Y75       0.066700
     77 H22        151.2770   132.0990   119.7470 hc         1 Y75       0.066700
     78 H23        150.6300   131.5490   122.7030 hc         1 Y75       0.039200
     79 H24        149.4100   131.6690   121.4440 hc         1 Y75       0.039200
     80 H25        151.6430   129.5660   121.5280 hc         1 Y75       0.052700
     81 H26        149.9940   129.3140   122.0890 hc         1 Y75       0.052700
     82 H27        149.1340   129.7430   119.7550 h1         1 Y75       0.026200
     83 H28        150.8160   129.9180   119.1880 h1         1 Y75       0.026200
     84 H29        154.5200   137.2270   121.2370 h1         1 Y75       0.044367
     85 H30        154.8980   135.8790   120.1320 h1         1 Y75       0.044367
     86 H31        153.5740   137.0170   119.7410 h1         1 Y75       0.044367
     87 H32        152.3630   135.0500   123.1900 h1         1 Y75       0.077700
     88 H33        155.3570   135.5690   122.9340 hc         1 Y75       0.068200
     89 H34        154.5190   135.0500   124.3820 hc         1 Y75       0.068200
     90 H35        156.1230   133.5450   121.2030 h4         1 Y75       0.218000
     91 H36        152.7410   133.2770   125.0470 ha         1 Y75       0.117000
     92 H37        151.8290   131.0360   125.7210 ha         1 Y75       0.112000
     93 H38        152.5890   128.9710   124.5360 ha         1 Y75       0.112000
     94 H39        154.2600   129.1350   122.6710 ha         1 Y75       0.109000
     95 H40        149.2920   133.5540   120.2310 hn         1 Y75       0.328500
     96 H41        146.0660   135.3410   120.3880 hn         1 Y75       0.426000
     97 H43        156.3130   143.4910   124.4240 hn         1 Y75       0.472000
     98 H44        157.2330   142.5710   125.5550 hn         1 Y75       0.472000
     99 H45        151.4260   137.3310   122.0350 hn         1 Y75       0.362500
    100 H46        149.0430   137.1240   115.0980 hn         1 Y75       0.390000
    101 H47        148.8710   138.5630   115.8070 hn         1 Y75       0.390000
    102 H49        150.0350   127.7400   118.7870 hn         1 Y75       0.390000
    103 H50        151.2510   127.6920   119.8470 hn         1 Y75       0.390000
    104 H52        155.7800   130.9660   121.2170 hn         1 Y75       0.351000
    105 C43        154.0870   136.4850   120.5540 c3         1 Y75       0.083300
@<TRIPOS>BOND
     1     1     2 1   
     2     1    49 1   
     3     1    51 2   
     4     2    26 1   
     5     2    41 1   
     6     2    56 1   
     7     3     4 1   
     8     3    41 1   
     9     3    52 2   
    10     4    23 1   
    11     4    42 1   
    12     4    57 1   
    13     5     6 1   
    14     5    42 1   
    15     5    58 1   
    16     5    59 1   
    17     6     7 ar  
    18     6    22 ar  
    19     7    46 ar  
    20     7    54 1   
    21     8     9 ar  
    22     8    18 ar  
    23     8    54 1   
    24     9    10 ar  
    25     9    55 1   
    26    10    11 ar  
    27    10    60 1   
    28    11    12 ar  
    29    11    61 1   
    30    12    13 1   
    31    12    18 ar  
    32    13    14 ar  
    33    13    17 ar  
    34    14    15 ar  
    35    14    62 1   
    36    15    16 ar  
    37    15    63 1   
    38    16    43 1   
    39    16    44 ar  
    40    17    44 ar  
    41    17    64 1   
    42    18    19 1   
    43    19    45 1   
    44    19    65 1   
    45    19    66 1   
    46    20    21 ar  
    47    20    46 ar  
    48    20    67 1   
    49    21    22 ar  
    50    21    68 1   
    51    22    69 1   
    52    23    24 1   
    53    23    70 1   
    54    23    71 1   
    55    24    25 1   
    56    24    72 1   
    57    24    73 1   
    58    25    47 1   
    59    25    74 1   
    60    25    75 1   
    61    26    27 1   
    62    26    76 1   
    63    26    77 1   
    64    27    28 1   
    65    27    78 1   
    66    27    79 1   
    67    28    29 1   
    68    28    80 1   
    69    28    81 1   
    70    29    48 1   
    71    29    82 1   
    72    29    83 1   
    73    30    31 1   
    74    30    40 1   
    75    30    49 1   
    76    30    87 1   
    77    31    32 1   
    78    31    88 1   
    79    31    89 1   
    80    32    33 2   
    81    32    35 1   
    82    33    50 1   
    83    33    90 1   
    84    34    35 ar  
    85    34    39 ar  
    86    34    50 1   
    87    35    36 ar  
    88    36    37 ar  
    89    36    91 1   
    90    37    38 ar  
    91    37    92 1   
    92    38    39 ar  
    93    38    93 1   
    94    39    94 1   
    95    40    45 1   
    96    40    53 2   
    97    41    95 1   
    98    42    96 1   
    99    43    97 1   
   100    43    98 1   
   101    45    99 1   
   102    47   100 1   
   103    47   101 1   
   104    48   102 1   
   105    48   103 1   
   106    49   105 1   
   107    50   104 1   
   108    84   105 1   
   109    85   105 1   
   110    86   105 1   
@<TRIPOS>SUBSTRUCTURE
     1 Y75         1 TEMP              0 ****  ****    0 ROOT
