@<TRIPOS>MOLECULE
Y75
  105   110     1     0     0
SMALL
abcg2


@<TRIPOS>ATOM
      1 C02        152.0120   135.0190   120.4750 c          1 Y75       0.599100
      2 C03        150.8760   134.1580   121.0350 c3         1 Y75       0.047700
      3 C05        149.1410   135.7390   120.4210 c          1 Y75       0.615100
      4 C06        147.7390   135.9150   119.8490 c3         1 Y75       0.104500
      5 C08        146.9000   136.3400   122.1480 c3         1 Y75       0.218100
      6 C09        147.8310   135.6620   123.1310 ca         1 Y75      -0.121300
      7 C10        148.7260   136.3590   123.9520 ca         1 Y75       0.476300
      8 C12        149.8780   138.5890   125.1180 ca         1 Y75      -0.111000
      9 C13        149.4610   138.5540   126.4460 ca         1 Y75       0.166000
     10 C15        150.2740   139.0340   127.4570 ca         1 Y75      -0.115000
     11 C16        151.4840   139.6120   127.1240 ca         1 Y75      -0.076000
     12 C17        151.9210   139.6860   125.8030 cp         1 Y75      -0.001000
     13 C18        153.1890   140.3940   125.5350 cp         1 Y75      -0.146000
     14 C19        154.3960   140.0120   126.1300 ca         1 Y75      -0.002000
     15 C20        155.5390   140.7410   125.9050 ca         1 Y75      -0.233000
     16 C21        155.4660   141.8720   125.0720 ca         1 Y75       0.598900
     17 C24        153.2310   141.5310   124.7430 ca         1 Y75       0.390900
     18 C25        151.1330   139.1200   124.7900 ca         1 Y75      -0.030300
     19 C26        151.6360   139.0290   123.3630 c3         1 Y75       0.150300
     20 C29        149.4990   134.4620   124.9430 ca         1 Y75       0.343900
     21 C30        148.6440   133.6660   124.2040 ca         1 Y75      -0.185000
     22 C31        147.8120   134.2850   123.2800 ca         1 Y75      -0.051000
     23 C32        147.5640   137.2920   119.2070 c3         1 Y75      -0.093400
     24 C33        148.5150   137.5810   118.0470 c3         1 Y75      -0.079400
     25 C34        148.4260   136.5840   116.8990 c3         1 Y75       0.150800
     26 C37        151.2060   132.6820   120.8170 c3         1 Y75      -0.096400
     27 C38        150.0960   131.7380   121.2770 c3         1 Y75      -0.073400
     28 C39        150.5700   130.3110   121.5240 c3         1 Y75      -0.083400
     29 C40        151.2480   129.6560   120.3320 c3         1 Y75       0.149800
     30 C44        152.9490   135.5140   122.7510 c3         1 Y75       0.041700
     31 C45        154.2210   134.8030   123.2340 c3         1 Y75      -0.008200
     32 C46        154.3580   133.4070   122.7290 cc         1 Y75      -0.146400
     33 C47        155.0050   132.9980   121.5960 cd         1 Y75      -0.145100
     34 C49        154.2830   131.1240   122.5580 ca         1 Y75      -0.053200
     35 C50        153.8750   132.2140   123.3590 ca         1 Y75      -0.098800
     36 C51        153.1430   131.9630   124.5260 ca         1 Y75      -0.062000
     37 C52        152.8620   130.6550   124.8710 ca         1 Y75      -0.143000
     38 C53        153.3010   129.5850   124.0740 ca         1 Y75      -0.091000
     39 C54        154.0120   129.8020   122.9090 ca         1 Y75      -0.137000
     40 C55        152.8280   136.9130   123.3840 c          1 Y75       0.584100
     41 N04        149.6510   134.5080   120.3540 ns         1 Y75      -0.474900
     42 N07        146.7810   135.5980   120.9060 n7         1 Y75      -0.884400
     43 N22        156.5770   142.6010   124.7780 nv         1 Y75      -1.058900
     44 N23        154.3200   142.2520   124.5110 nb         1 Y75      -0.748000
     45 N27        151.8240   137.6660   122.9150 ns         1 Y75      -0.487900
     46 N28        149.5380   135.7840   124.8170 nb         1 Y75      -0.674000
     47 N35        149.2810   137.0030   115.7980 n8         1 Y75      -0.989200
     48 N41        151.5160   128.2490   120.6060 n8         1 Y75      -0.996200
     49 N42        152.8950   135.6190   121.3050 n          1 Y75      -0.399800
     50 N48        154.9540   131.6370   121.4880 na         1 Y75      -0.224700
     51 O01        152.1130   135.1350   119.2630 o          1 Y75      -0.594100
     52 O36        149.7410   136.6700   120.9500 o          1 Y75      -0.633100
     53 O56        153.6030   137.2970   124.2450 o          1 Y75      -0.611100
     54 S11        148.7670   138.1290   123.8290 ss         1 Y75      -0.140300
     55 CL14       147.9160   137.9130   126.8710 cl         1 Y75      -0.188000
     56 H1         150.7200   134.3140   122.1040 h1         1 Y75       0.065700
     57 H2         147.5830   135.1530   119.0790 h1         1 Y75       0.062700
     58 H3         147.1960   137.3840   121.9970 h1         1 Y75       0.054200
     59 H4         145.9070   136.3820   122.6020 h1         1 Y75       0.054200
     60 H5         149.9530   138.9890   128.4890 ha         1 Y75       0.129000
     61 H6         152.0970   140.0340   127.9100 ha         1 Y75       0.119000
     62 H7         154.4330   139.1350   126.7650 ha         1 Y75       0.126000
     63 H8         156.4810   140.4520   126.3550 ha         1 Y75       0.121000
     64 H9         152.3190   141.8920   124.2730 h4         1 Y75       0.015100
     65 H10        152.5780   139.5650   123.2710 h1         1 Y75       0.066200
     66 H11        150.9380   139.5030   122.6750 h1         1 Y75       0.066200
     67 H12        150.1830   134.0270   125.6630 h4         1 Y75       0.020100
     68 H13        148.6340   132.5940   124.3410 ha         1 Y75       0.125000
     69 H14        147.1460   133.6960   122.6630 ha         1 Y75       0.129000
     70 H15        147.6750   138.0740   119.9610 hc         1 Y75       0.047700
     71 H16        146.5320   137.3520   118.8470 hc         1 Y75       0.047700
     72 H17        149.5490   137.6260   118.4000 hc         1 Y75       0.060200
     73 H18        148.2840   138.5780   117.6610 hc         1 Y75       0.060200
     74 H19        147.3700   136.4580   116.6150 h1         1 Y75       0.021700
     75 H20        148.7720   135.6020   117.2310 h1         1 Y75       0.021700
     76 H21        152.1170   132.4630   121.3780 hc         1 Y75       0.066700
     77 H22        151.4410   132.5170   119.7630 hc         1 Y75       0.066700
     78 H23        149.6610   132.1160   122.2050 hc         1 Y75       0.039200
     79 H24        149.2810   131.7190   120.5460 hc         1 Y75       0.039200
     80 H25        151.2580   130.3060   122.3750 hc         1 Y75       0.052700
     81 H26        149.7120   129.7000   121.8180 hc         1 Y75       0.052700
     82 H27        150.5860   129.7150   119.4620 h1         1 Y75       0.026200
     83 H28        152.1540   130.2210   120.0690 h1         1 Y75       0.026200
     84 H29        154.5030   136.9490   121.4280 h1         1 Y75       0.044367
     85 H30        154.6230   135.8060   120.0970 h1         1 Y75       0.044367
     86 H31        153.4940   137.1640   120.0040 h1         1 Y75       0.044367
     87 H32        152.0930   134.9390   123.1030 h1         1 Y75       0.077700
     88 H33        155.0990   135.3870   122.9540 hc         1 Y75       0.068200
     89 H34        154.2040   134.7950   124.3250 hc         1 Y75       0.068200
     90 H35        155.5180   133.5870   120.8510 h4         1 Y75       0.218000
     91 H36        152.8080   132.7810   125.1530 ha         1 Y75       0.117000
     92 H37        152.2980   130.4480   125.7720 ha         1 Y75       0.112000
     93 H38        153.0720   128.5710   124.3740 ha         1 Y75       0.112000
     94 H39        154.3480   128.9770   122.2940 ha         1 Y75       0.109000
     95 H40        149.1230   133.7820   119.8970 hn         1 Y75       0.328500
     96 H41        145.8460   135.6940   120.5340 hn         1 Y75       0.426000
     97 H43        156.4270   143.5240   124.4040 hn         1 Y75       0.472000
     98 H44        157.3720   142.5210   125.3890 hn         1 Y75       0.472000
     99 H45        151.1740   137.2830   122.2380 hn         1 Y75       0.362500
    100 H46        149.2410   136.3160   115.0560 hn         1 Y75       0.390000
    101 H47        148.9140   137.8580   115.3970 hn         1 Y75       0.390000
    102 H49        151.9950   127.8370   119.8150 hn         1 Y75       0.390000
    103 H50        152.1670   128.1840   121.3800 hn         1 Y75       0.390000
    104 H52        155.3790   131.1000   120.7500 hn         1 Y75       0.351000
    105 C43        153.9290   136.4220   120.6700 c3         1 Y75       0.083300
@<TRIPOS>BOND
     1     1     2 1   
     2     1    49 1   
     3     1    51 2   
     4     2    26 1   
     5     2    41 1   
     6     2    56 1   
     7     3     4 1   
     8     3    41 1   
     9     3    52 2   
    10     4    23 1   
    11     4    42 1   
    12     4    57 1   
    13     5     6 1   
    14     5    42 1   
    15     5    58 1   
    16     5    59 1   
    17     6     7 ar  
    18     6    22 ar  
    19     7    46 ar  
    20     7    54 1   
    21     8     9 ar  
    22     8    18 ar  
    23     8    54 1   
    24     9    10 ar  
    25     9    55 1   
    26    10    11 ar  
    27    10    60 1   
    28    11    12 ar  
    29    11    61 1   
    30    12    13 1   
    31    12    18 ar  
    32    13    14 ar  
    33    13    17 ar  
    34    14    15 ar  
    35    14    62 1   
    36    15    16 ar  
    37    15    63 1   
    38    16    43 1   
    39    16    44 ar  
    40    17    44 ar  
    41    17    64 1   
    42    18    19 1   
    43    19    45 1   
    44    19    65 1   
    45    19    66 1   
    46    20    21 ar  
    47    20    46 ar  
    48    20    67 1   
    49    21    22 ar  
    50    21    68 1   
    51    22    69 1   
    52    23    24 1   
    53    23    70 1   
    54    23    71 1   
    55    24    25 1   
    56    24    72 1   
    57    24    73 1   
    58    25    47 1   
    59    25    74 1   
    60    25    75 1   
    61    26    27 1   
    62    26    76 1   
    63    26    77 1   
    64    27    28 1   
    65    27    78 1   
    66    27    79 1   
    67    28    29 1   
    68    28    80 1   
    69    28    81 1   
    70    29    48 1   
    71    29    82 1   
    72    29    83 1   
    73    30    31 1   
    74    30    40 1   
    75    30    49 1   
    76    30    87 1   
    77    31    32 1   
    78    31    88 1   
    79    31    89 1   
    80    32    33 2   
    81    32    35 1   
    82    33    50 1   
    83    33    90 1   
    84    34    35 ar  
    85    34    39 ar  
    86    34    50 1   
    87    35    36 ar  
    88    36    37 ar  
    89    36    91 1   
    90    37    38 ar  
    91    37    92 1   
    92    38    39 ar  
    93    38    93 1   
    94    39    94 1   
    95    40    45 1   
    96    40    53 2   
    97    41    95 1   
    98    42    96 1   
    99    43    97 1   
   100    43    98 1   
   101    45    99 1   
   102    47   100 1   
   103    47   101 1   
   104    48   102 1   
   105    48   103 1   
   106    49   105 1   
   107    50   104 1   
   108    84   105 1   
   109    85   105 1   
   110    86   105 1   
@<TRIPOS>SUBSTRUCTURE
     1 Y75         1 TEMP              0 ****  ****    0 ROOT
