@<TRIPOS>MOLECULE
Y79
   56    58     1     0     0
SMALL
abcg2


@<TRIPOS>ATOM
      1 C8          -3.0300    69.4900    -2.1010 cc         1 Y79      -0.309600
      2 C5          -1.0360    68.5490    -1.5660 cd         1 Y79      -0.188000
      3 C6          -2.0680    67.7980    -1.0340 cc         1 Y79      -0.142000
      4 N1          -1.0460    70.6520    -2.9490 nd         1 Y79      -0.660100
      5 C2          -1.8650    71.5190    -3.4790 cc         1 Y79       0.680800
      6 C4          -3.9280    70.4380    -2.6600 c          1 Y79       0.615600
      7 C9          -1.6400    69.6320    -2.2530 cd         1 Y79       0.177400
      8 C12         -5.2740    67.0790    -8.6300 ca         1 Y79      -0.114600
      9 C13         -4.1580    67.3150    -7.8380 ca         1 Y79       0.232000
     10 C14         -6.3600    66.4530    -8.0210 ca         1 Y79      -0.057000
     11 C15         -4.0790    66.9230    -6.5180 ca         1 Y79      -0.165000
     12 C16         -6.3140    66.0730    -6.6860 ca         1 Y79      -0.137000
     13 C17         -5.3220    67.5330   -10.0580 c          1 Y79       0.614700
     14 C20         -5.4500    65.1430   -10.8250 c3         1 Y79      -0.041300
     15 C21         -5.8190    64.4570   -12.1480 c3         1 Y79      -0.048400
     16 C22         -4.8140    64.6550   -13.2830 c3         1 Y79      -0.193400
     17 C23         -5.2390    63.9500   -14.5850 c          1 Y79       0.704000
     18 C26         -4.0700    64.6370   -10.3110 c          1 Y79       0.709000
     19 C30         -4.8700    66.5950    -2.0540 c3         1 Y79      -0.092400
     20 C31         -4.9570    67.0410    -3.5100 c3         1 Y79      -0.080400
     21 C32         -5.1000    65.8600    -4.4760 c3         1 Y79      -0.021100
     22 C33         -5.1690    66.2870    -5.9190 ca         1 Y79      -0.067300
     23 N11         -1.3870    72.6100    -4.1480 nv         1 Y79      -1.029200
     24 N19         -5.5300    66.5920   -10.9950 ns         1 Y79      -0.432900
     25 N3          -3.2300    71.4330    -3.3590 ns         1 Y79      -0.441400
     26 N7          -3.2710    68.3600    -1.3430 na         1 Y79       0.051000
     27 O10         -5.1610    70.4810    -2.5990 o          1 Y79      -0.570000
     28 O18         -5.2130    68.7320   -10.3380 o          1 Y79      -0.685100
     29 O24         -6.3840    64.2190   -15.0360 o          1 Y79      -0.766500
     30 O25         -4.4080    63.1620   -15.1090 o          1 Y79      -0.766500
     31 O27         -3.0750    65.3860   -10.4310 o          1 Y79      -0.729500
     32 O28         -4.0920    63.4760    -9.8320 o          1 Y79      -0.729500
     33 H1           0.0180    68.3490    -1.4660 ha         1 Y79       0.143000
     34 H2          -2.0300    66.8900    -0.4540 h4         1 Y79       0.142000
     35 H3          -7.2540    66.2660    -8.6020 ha         1 Y79       0.119000
     36 H4          -3.1670    67.1130    -5.9670 ha         1 Y79       0.114000
     37 H5          -7.1740    65.5920    -6.2370 ha         1 Y79       0.095000
     38 H6          -6.1870    64.8350   -10.0860 h1         1 Y79       0.022700
     39 H7          -6.8020    64.8110   -12.4660 hc         1 Y79       0.034700
     40 H8          -5.9170    63.3900   -11.9380 hc         1 Y79       0.034700
     41 H9          -3.8320    64.2890   -12.9840 hc         1 Y79       0.032700
     42 H10         -4.7040    65.7210   -13.5130 hc         1 Y79       0.032700
     43 H11         -5.3220    68.5120    -1.1470 h1         1 Y79       0.064200
     44 H12         -4.5480    67.3570    -0.0570 h1         1 Y79       0.064200
     45 H13         -5.8130    66.1330    -1.7460 hc         1 Y79       0.043200
     46 H14         -4.0960    65.8280    -1.9510 hc         1 Y79       0.043200
     47 H15         -4.0600    67.6050    -3.7740 hc         1 Y79       0.054200
     48 H16         -5.8020    67.7230    -3.6390 hc         1 Y79       0.054200
     49 H17         -5.9950    65.2850    -4.2280 hc         1 Y79       0.039700
     50 H18         -4.2440    65.1920    -4.3390 hc         1 Y79       0.039700
     51 H19         -0.4170    72.5480    -4.4160 hn         1 Y79       0.480500
     52 H20         -1.9840    73.0430    -4.8350 hn         1 Y79       0.480500
     53 H21         -5.5350    66.9480   -11.9410 hn         1 Y79       0.315500
     54 H22         -3.8080    72.1530    -3.7720 hn         1 Y79       0.324500
     55 C29         -4.5660    67.7340    -1.0800 c3         1 Y79       0.069600
     56 F34         -3.0830    67.9360    -8.3820 f          1 Y79      -0.163000
@<TRIPOS>BOND
     1     1     6 1   
     2     1     7 2   
     3     1    26 1   
     4     2     3 2   
     5     2     7 1   
     6     2    33 1   
     7     3    26 1   
     8     3    34 1   
     9     4     5 2   
    10     4     7 1   
    11     5    23 1   
    12     5    25 1   
    13     6    25 1   
    14     6    27 2   
    15     8     9 ar  
    16     8    10 ar  
    17     8    13 1   
    18     9    11 ar  
    19     9    56 1   
    20    10    12 ar  
    21    10    35 1   
    22    11    22 ar  
    23    11    36 1   
    24    12    22 ar  
    25    12    37 1   
    26    13    24 1   
    27    13    28 2   
    28    14    15 1   
    29    14    18 1   
    30    14    24 1   
    31    14    38 1   
    32    15    16 1   
    33    15    39 1   
    34    15    40 1   
    35    16    17 1   
    36    16    41 1   
    37    16    42 1   
    38    17    29 1   
    39    17    30 1   
    40    18    31 1   
    41    18    32 1   
    42    19    20 1   
    43    19    45 1   
    44    19    46 1   
    45    19    55 1   
    46    20    21 1   
    47    20    47 1   
    48    20    48 1   
    49    21    22 1   
    50    21    49 1   
    51    21    50 1   
    52    23    51 1   
    53    23    52 1   
    54    24    53 1   
    55    25    54 1   
    56    26    55 1   
    57    43    55 1   
    58    44    55 1   
@<TRIPOS>SUBSTRUCTURE
     1 Y79         1 TEMP              0 ****  ****    0 ROOT
