@<TRIPOS>MOLECULE
Y79
   56    58     1     0     0
SMALL
No Charge or Current Charge


@<TRIPOS>ATOM
      1 C8          -3.3000    69.7460    -1.9480 cc         1 Y79      -0.309600
      2 C5          -1.3690    69.1960    -0.8990 cd         1 Y79      -0.188000
      3 C6          -2.2680    68.2110    -0.5860 cc         1 Y79      -0.142000
      4 N1          -1.4660    71.2760    -2.2840 nd         1 Y79      -0.660100
      5 C2          -2.3180    71.9430    -3.0280 cc         1 Y79       0.680800
      6 C4          -4.2090    70.5310    -2.7810 c          1 Y79       0.615600
      7 C9          -2.0070    70.1240    -1.7300 cd         1 Y79       0.177400
      8 C12         -4.3750    66.7600    -8.7490 ca         1 Y79      -0.114600
      9 C13         -3.2060    66.6500    -7.9710 ca         1 Y79       0.232000
     10 C14         -5.6250    66.5270    -8.1350 ca         1 Y79      -0.057000
     11 C15         -3.2790    66.2810    -6.6180 ca         1 Y79      -0.165000
     12 C16         -5.6960    66.1600    -6.7800 ca         1 Y79      -0.137000
     13 C17         -4.2820    67.1840   -10.1900 c          1 Y79       0.614700
     14 C20         -5.4960    65.0850   -11.0060 c3         1 Y79      -0.041300
     15 C21         -6.3200    64.6640   -12.2520 c3         1 Y79      -0.048400
     16 C22         -5.5420    64.6600   -13.5960 c3         1 Y79      -0.193400
     17 C23         -6.4690    64.2210   -14.7430 c          1 Y79       0.704000
     18 C26         -4.3590    64.0570   -10.6720 c          1 Y79       0.709000
     19 C30         -4.6690    66.5070    -2.1180 c3         1 Y79      -0.092400
     20 C31         -4.5990    66.8720    -3.6200 c3         1 Y79      -0.080400
     21 C32         -4.6010    65.6370    -4.5450 c3         1 Y79      -0.021100
     22 C33         -4.5240    66.0280    -6.0140 ca         1 Y79      -0.067300
     23 N11         -1.8740    73.0540    -3.5980 nv         1 Y79      -1.029200
     24 N19         -4.9770    66.4710   -11.1450 ns         1 Y79      -0.432900
     25 N3          -3.6030    71.6260    -3.2810 ns         1 Y79      -0.441400
     26 N7          -3.4640    68.5470    -1.2350 na         1 Y79       0.051000
     27 O10         -5.3770    70.2680    -3.0170 o          1 Y79      -0.570000
     28 O18         -3.6740    68.1910   -10.5280 o          1 Y79      -0.685100
     29 O24         -7.1130    65.0790   -15.3260 o          1 Y79      -0.766500
     30 O25         -6.5590    63.0280   -14.9900 o          1 Y79      -0.766500
     31 O27         -3.2200    64.2770   -11.0600 o          1 Y79      -0.729500
     32 O28         -4.6400    63.1190    -9.9390 o          1 Y79      -0.729500
     33 H1          -0.3380    69.2480    -0.5640 ha         1 Y79       0.143000
     34 H2          -2.1640    67.3210     0.0240 h4         1 Y79       0.142000
     35 H3          -6.5460    66.6550    -8.7000 ha         1 Y79       0.119000
     36 H4          -2.3640    66.1930    -6.0390 ha         1 Y79       0.114000
     37 H5          -6.6680    65.9870    -6.3230 ha         1 Y79       0.095000
     38 H6          -6.1940    65.0670   -10.1630 h1         1 Y79       0.022700
     39 H7          -7.1810    65.3380   -12.3430 hc         1 Y79       0.034700
     40 H8          -6.7310    63.6630   -12.0750 hc         1 Y79       0.034700
     41 H9          -4.7270    63.9370   -13.4760 hc         1 Y79       0.032700
     42 H10         -5.2010    65.6880   -13.7630 hc         1 Y79       0.032700
     43 H11         -5.5620    68.3560    -1.3970 h1         1 Y79       0.064200
     44 H12         -4.8070    67.3760    -0.1410 h1         1 Y79       0.064200
     45 H13         -5.5740    65.9130    -1.9370 hc         1 Y79       0.043200
     46 H14         -3.8160    65.8680    -1.8580 hc         1 Y79       0.043200
     47 H15         -3.6920    67.4560    -3.8130 hc         1 Y79       0.054200
     48 H16         -5.4530    67.5120    -3.8770 hc         1 Y79       0.054200
     49 H17         -5.5070    65.0470    -4.3570 hc         1 Y79       0.039700
     50 H18         -3.7540    64.9910    -4.2850 hc         1 Y79       0.039700
     51 H19         -0.8690    73.1690    -3.5460 hn         1 Y79       0.480500
     52 H20         -2.3000    73.3340    -4.4730 hn         1 Y79       0.480500
     53 H21         -4.9080    66.8480   -12.0810 hn         1 Y79       0.315500
     54 H22         -4.1650    72.2360    -3.8500 hn         1 Y79       0.324500
     55 C29         -4.6910    67.7300    -1.1730 c3         1 Y79       0.069600
     56 F34         -1.9890    66.8720    -8.5190 f          1 Y79      -0.163000
@<TRIPOS>BOND
     1     1     6 1   
     2     1     7 2   
     3     1    26 1   
     4     2     3 2   
     5     2     7 1   
     6     2    33 1   
     7     3    26 1   
     8     3    34 1   
     9     4     5 2   
    10     4     7 1   
    11     5    23 1   
    12     5    25 1   
    13     6    25 1   
    14     6    27 2   
    15     8     9 ar  
    16     8    10 ar  
    17     8    13 1   
    18     9    11 ar  
    19     9    56 1   
    20    10    12 ar  
    21    10    35 1   
    22    11    22 ar  
    23    11    36 1   
    24    12    22 ar  
    25    12    37 1   
    26    13    24 1   
    27    13    28 2   
    28    14    15 1   
    29    14    18 1   
    30    14    24 1   
    31    14    38 1   
    32    15    16 1   
    33    15    39 1   
    34    15    40 1   
    35    16    17 1   
    36    16    41 1   
    37    16    42 1   
    38    17    29 1   
    39    17    30 1   
    40    18    31 1   
    41    18    32 1   
    42    19    20 1   
    43    19    45 1   
    44    19    46 1   
    45    19    55 1   
    46    20    21 1   
    47    20    47 1   
    48    20    48 1   
    49    21    22 1   
    50    21    49 1   
    51    21    50 1   
    52    23    51 1   
    53    23    52 1   
    54    24    53 1   
    55    25    54 1   
    56    26    55 1   
    57    43    55 1   
    58    44    55 1   
@<TRIPOS>SUBSTRUCTURE
     1 Y79         1 TEMP              0 ****  ****    0 ROOT
