@<TRIPOS>MOLECULE
Y7H
   45    49     1     0     0
SMALL
abcg2


@<TRIPOS>ATOM
      1 C18        167.4380   139.3610   127.3730 c3         1 Y7H       0.163800
      2 C1         164.5610   138.7360   128.9480 c          1 Y7H       0.577600
      3 C2         163.2450   138.0130   128.9470 ca         1 Y7H      -0.072600
      4 C3         162.0850   138.7740   128.9640 ca         1 Y7H      -0.090000
      5 C4         160.8130   138.1890   129.1050 ca         1 Y7H      -0.084000
      6 C5         160.6500   136.8260   129.2650 ca         1 Y7H      -0.114000
      7 C6         161.8120   136.0490   129.2460 ca         1 Y7H      -0.037200
      8 C7         163.9870   135.5050   129.0600 cc         1 Y7H       0.353900
      9 C8         163.0960   136.6170   129.0660 ca         1 Y7H      -0.204900
     10 C9         165.4460   135.5860   128.7760 c3         1 Y7H      -0.103700
     11 C10        165.7160   136.7950   127.8750 c3         1 Y7H       0.106000
     12 C11        166.9810   138.7880   128.7290 c3         1 Y7H       0.067700
     13 C12        168.0220   137.9300   129.4480 c3         1 Y7H      -0.077400
     14 C13        169.3900   138.6270   129.6290 c6         1 Y7H      -0.056700
     15 C14        170.3440   138.3600   128.4590 c6         1 Y7H      -0.106400
     16 C15        169.8790   139.0830   127.1690 c6         1 Y7H       0.169300
     17 C16        168.9900   140.8880   128.5000 c6         1 Y7H       0.169300
     18 C17        169.2740   140.1460   129.8410 c6         1 Y7H      -0.106400
     19 O1         164.5880   139.9100   129.3400 o          1 Y7H      -0.572000
     20 N1         162.0120   134.7080   129.3570 na         1 Y7H      -0.074400
     21 N2         163.3220   134.3760   129.2250 nd         1 Y7H      -0.506100
     22 N3         165.6950   138.0840   128.5760 n          1 Y7H      -0.406800
     23 N4         168.7510   139.9950   127.3650 n3         1 Y7H      -0.720600
     24 H1         166.6860   140.0950   127.0680 h1         1 Y7H       0.054200
     25 H2         167.4470   138.5750   126.6160 h1         1 Y7H       0.054200
     26 H3         162.1690   139.8480   128.8870 ha         1 Y7H       0.139000
     27 H4         159.9410   138.8310   129.1040 ha         1 Y7H       0.119000
     28 H5         159.6730   136.3810   129.3950 ha         1 Y7H       0.122000
     29 H6         165.7740   134.6740   128.2740 hc         1 Y7H       0.069700
     30 H7         166.0280   135.6820   129.6960 hc         1 Y7H       0.069700
     31 H8         164.9960   136.8120   127.0560 h1         1 Y7H       0.054700
     32 H9         166.6990   136.6970   127.4250 h1         1 Y7H       0.054700
     33 H10        166.7550   139.6320   129.3720 h1         1 Y7H       0.090700
     34 H11        167.6120   137.6830   130.4300 hc         1 Y7H       0.044200
     35 H12        168.1850   136.9830   128.9280 hc         1 Y7H       0.044200
     36 H13        169.8410   138.1950   130.5250 hc         1 Y7H       0.048700
     37 H14        170.4240   137.2840   128.2860 hc         1 Y7H       0.043950
     38 H15        171.3400   138.7120   128.7400 hc         1 Y7H       0.043950
     39 H16        169.5920   138.3620   126.4030 h1         1 Y7H       0.051450
     40 H17        170.7090   139.6690   126.7630 h1         1 Y7H       0.051450
     41 H18        169.8480   141.5140   128.2440 h1         1 Y7H       0.051450
     42 H19        168.1280   141.5500   128.6010 h1         1 Y7H       0.051450
     43 H20        170.2130   140.5090   130.2630 hc         1 Y7H       0.043950
     44 H21        168.4950   140.3650   130.5750 hc         1 Y7H       0.043950
     45 H22        161.3200   133.9840   129.4620 hn         1 Y7H       0.379000
@<TRIPOS>BOND
     1     1    12 1   
     2     1    23 1   
     3     1    24 1   
     4     1    25 1   
     5     2     3 1   
     6     2    19 2   
     7     2    22 1   
     8     3     4 ar  
     9     3     9 ar  
    10     4     5 ar  
    11     4    26 1   
    12     5     6 ar  
    13     5    27 1   
    14     6     7 ar  
    15     6    28 1   
    16     7     9 ar  
    17     7    20 1   
    18     8     9 1   
    19     8    10 1   
    20     8    21 2   
    21    10    11 1   
    22    10    29 1   
    23    10    30 1   
    24    11    22 1   
    25    11    31 1   
    26    11    32 1   
    27    12    13 1   
    28    12    22 1   
    29    12    33 1   
    30    13    14 1   
    31    13    34 1   
    32    13    35 1   
    33    14    15 1   
    34    14    18 1   
    35    14    36 1   
    36    15    16 1   
    37    15    37 1   
    38    15    38 1   
    39    16    23 1   
    40    16    39 1   
    41    16    40 1   
    42    17    18 1   
    43    17    23 1   
    44    17    41 1   
    45    17    42 1   
    46    18    43 1   
    47    18    44 1   
    48    20    21 1   
    49    20    45 1   
@<TRIPOS>SUBSTRUCTURE
     1 Y7H         1 TEMP              0 ****  ****    0 ROOT
