@<TRIPOS>MOLECULE
Y7H
   45    49     1     0     0
SMALL
No Charge or Current Charge


@<TRIPOS>ATOM
      1 C18        167.4800   139.3910   127.3880 c3         1 Y7H       0.163800
      2 C1         164.4620   138.7780   128.7810 c          1 Y7H       0.577600
      3 C2         163.1410   138.0170   128.9050 ca         1 Y7H      -0.072600
      4 C3         161.9280   138.7610   128.9400 ca         1 Y7H      -0.090000
      5 C4         160.6730   138.1320   129.1210 ca         1 Y7H      -0.084000
      6 C5         160.5930   136.7380   129.2870 ca         1 Y7H      -0.114000
      7 C6         161.7900   136.0190   129.2520 ca         1 Y7H      -0.037200
      8 C7         163.9490   135.5140   129.0800 cc         1 Y7H       0.353900
      9 C8         163.0040   136.6120   129.0610 ca         1 Y7H      -0.204900
     10 C9         165.4080   135.6110   128.7800 c3         1 Y7H      -0.103700
     11 C10        165.6910   136.7980   127.8620 c3         1 Y7H       0.106000
     12 C11        166.9840   138.7980   128.7420 c3         1 Y7H       0.067700
     13 C12        168.0490   137.9660   129.5100 c3         1 Y7H      -0.077400
     14 C13        169.4670   138.6090   129.6340 c6         1 Y7H      -0.056700
     15 C14        170.3500   138.3030   128.3960 c6         1 Y7H      -0.106400
     16 C15        169.9620   139.1390   127.1460 c6         1 Y7H       0.169300
     17 C16        169.0720   140.9470   128.5590 c6         1 Y7H       0.169300
     18 C17        169.4170   140.1500   129.8600 c6         1 Y7H      -0.106400
     19 O1         164.4740   139.9980   128.9090 o          1 Y7H      -0.572000
     20 N1         162.0010   134.6670   129.3990 na         1 Y7H      -0.074400
     21 N2         163.3520   134.3310   129.2900 nd         1 Y7H      -0.506100
     22 N3         165.6800   138.0750   128.6030 n          1 Y7H      -0.406800
     23 N4         168.8150   140.0590   127.3850 n3         1 Y7H      -0.720600
     24 H1         166.7250   140.1220   127.0700 h1         1 Y7H       0.054200
     25 H2         167.4690   138.6000   126.6270 h1         1 Y7H       0.054200
     26 H3         161.9510   139.8430   128.8330 ha         1 Y7H       0.139000
     27 H4         159.7660   138.7320   129.1430 ha         1 Y7H       0.119000
     28 H5         159.6370   136.2420   129.4380 ha         1 Y7H       0.122000
     29 H6         165.7390   134.6940   128.2790 hc         1 Y7H       0.069700
     30 H7         165.9850   135.6980   129.7070 hc         1 Y7H       0.069700
     31 H8         164.9530   136.8330   127.0480 h1         1 Y7H       0.054700
     32 H9         166.6720   136.6510   127.3930 h1         1 Y7H       0.054700
     33 H10        166.7980   139.6650   129.3880 h1         1 Y7H       0.090700
     34 H11        167.6530   137.7910   130.5170 hc         1 Y7H       0.044200
     35 H12        168.1480   136.9720   129.0610 hc         1 Y7H       0.044200
     36 H13        169.9340   138.1360   130.5100 hc         1 Y7H       0.048700
     37 H14        170.3150   137.2330   128.1540 hc         1 Y7H       0.043950
     38 H15        171.3990   138.5150   128.6440 hc         1 Y7H       0.043950
     39 H16        169.7440   138.4600   126.3080 h1         1 Y7H       0.051450
     40 H17        170.8420   139.7250   126.8400 h1         1 Y7H       0.051450
     41 H18        169.9150   141.6170   128.3330 h1         1 Y7H       0.051450
     42 H19        168.2050   141.5980   128.7470 h1         1 Y7H       0.051450
     43 H20        170.3940   140.4900   130.2290 hc         1 Y7H       0.043950
     44 H21        168.6990   140.3940   130.6540 hc         1 Y7H       0.043950
     45 H22        161.2860   133.9600   129.5650 hn         1 Y7H       0.379000
@<TRIPOS>BOND
     1     1    12 1   
     2     1    23 1   
     3     1    24 1   
     4     1    25 1   
     5     2     3 1   
     6     2    19 2   
     7     2    22 1   
     8     3     4 ar  
     9     3     9 ar  
    10     4     5 ar  
    11     4    26 1   
    12     5     6 ar  
    13     5    27 1   
    14     6     7 ar  
    15     6    28 1   
    16     7     9 ar  
    17     7    20 1   
    18     8     9 1   
    19     8    10 1   
    20     8    21 2   
    21    10    11 1   
    22    10    29 1   
    23    10    30 1   
    24    11    22 1   
    25    11    31 1   
    26    11    32 1   
    27    12    13 1   
    28    12    22 1   
    29    12    33 1   
    30    13    14 1   
    31    13    34 1   
    32    13    35 1   
    33    14    15 1   
    34    14    18 1   
    35    14    36 1   
    36    15    16 1   
    37    15    37 1   
    38    15    38 1   
    39    16    23 1   
    40    16    39 1   
    41    16    40 1   
    42    17    18 1   
    43    17    23 1   
    44    17    41 1   
    45    17    42 1   
    46    18    43 1   
    47    18    44 1   
    48    20    21 1   
    49    20    45 1   
@<TRIPOS>SUBSTRUCTURE
     1 Y7H         1 TEMP              0 ****  ****    0 ROOT
