@<TRIPOS>MOLECULE
Y7L
   56    58     1     0     0
SMALL
No Charge or Current Charge


@<TRIPOS>ATOM
      1 C8          25.6670   -12.1850   -21.7790 cc         1 Y7L      -0.344600
      2 N7          26.0710   -13.3670   -22.4230 na         1 Y7L       0.030000
      3 C5          27.7810   -11.9590   -22.5570 cd         1 Y7L      -0.195000
      4 C6          27.3720   -13.2150   -22.9220 cc         1 Y7L      -0.161000
      5 N1          26.7360   -10.0820   -21.2740 nd         1 Y7L      -0.657100
      6 C2          25.6140    -9.8040   -20.6560 cc         1 Y7L       0.696800
      7 N3          24.5160   -10.5770   -20.5660 ns         1 Y7L      -0.441400
      8 C4          24.4270   -11.8040   -21.1080 c          1 Y7L       0.610600
      9 C13         25.9930   -11.6320   -16.9520 cc         1 Y7L      -0.238600
     10 C14         27.1070   -12.3560   -16.5800 cd         1 Y7L      -0.106000
     11 C15         26.9130   -13.7610   -16.6730 cd         1 Y7L      -0.139000
     12 C16         25.6640   -14.1180   -17.1150 cc         1 Y7L      -0.246300
     13 C20         27.2190    -8.0130   -16.8360 c3         1 Y7L      -0.047300
     14 C21         27.5340    -7.4170   -15.4380 c3         1 Y7L      -0.054400
     15 C22         26.3960    -7.6050   -14.4010 c3         1 Y7L      -0.198400
     16 C23         26.7620    -6.9040   -13.0790 c          1 Y7L       0.707000
     17 C26         28.2870    -7.6580   -17.9150 c          1 Y7L       0.704000
     18 C29         25.2970   -14.6230   -22.5070 c3         1 Y7L       0.075600
     19 C30         25.6130   -15.6180   -21.3620 c3         1 Y7L      -0.087400
     20 C31         25.2140   -15.0950   -19.9630 c3         1 Y7L      -0.088400
     21 C32         25.5950   -16.0350   -18.7970 c3         1 Y7L      -0.065400
     22 C33         25.1490   -15.5040   -17.4130 c3         1 Y7L       0.006900
     23 C9          26.7390   -11.3450   -21.8530 cd         1 Y7L       0.209400
     24 N11         25.5450    -8.6660   -19.9950 nv         1 Y7L      -1.010200
     25 N19         27.0450    -9.4850   -16.7770 ns         1 Y7L      -0.416900
     26 O10         23.4160   -12.4800   -21.0230 o          1 Y7L      -0.616000
     27 O18         24.8620    -9.5900   -17.4220 o          1 Y7L      -0.685100
     28 O24         26.4570    -5.7290   -12.9440 o          1 Y7L      -0.761500
     29 O25         27.3860    -7.5380   -12.2420 o          1 Y7L      -0.761500
     30 O27         29.4710    -7.6700   -17.6070 o          1 Y7L      -0.729000
     31 O28         27.8890    -7.4080   -19.0450 o          1 Y7L      -0.729000
     32 S12         24.6510   -12.6910   -17.3580 ss         1 Y7L       0.264000
     33 H1          28.7500   -11.5190   -22.7660 ha         1 Y7L       0.141000
     34 H2          27.8880   -14.0010   -23.4590 h4         1 Y7L       0.125000
     35 H3          23.7060   -10.2340   -20.0800 hn         1 Y7L       0.329500
     36 H4          28.0550   -11.9210   -16.2780 ha         1 Y7L       0.142000
     37 H5          27.6930   -14.4830   -16.4520 ha         1 Y7L       0.116000
     38 H6          26.2800    -7.5590   -17.1770 h1         1 Y7L       0.059700
     39 H7          28.4570    -7.8640   -15.0470 hc         1 Y7L       0.053700
     40 H8          27.7300    -6.3440   -15.5550 hc         1 Y7L       0.053700
     41 H9          25.5060    -7.1420   -14.8450 hc         1 Y7L       0.017200
     42 H10         26.2980    -8.6860   -14.2440 hc         1 Y7L       0.017200
     43 H11         24.2260   -14.3910   -22.5150 h1         1 Y7L       0.060200
     44 H12         25.5330   -15.1010   -23.4660 h1         1 Y7L       0.060200
     45 H13         25.0830   -16.5590   -21.5560 hc         1 Y7L       0.032700
     46 H14         26.6850   -15.8490   -21.3740 hc         1 Y7L       0.032700
     47 H15         25.7050   -14.1290   -19.7990 hc         1 Y7L       0.065200
     48 H16         24.1330   -14.9160   -19.9410 hc         1 Y7L       0.065200
     49 H17         25.1450   -17.0220   -18.9620 hc         1 Y7L       0.027200
     50 H18         26.6830   -16.1770   -18.7910 hc         1 Y7L       0.027200
     51 H19         24.0530   -15.5100   -17.3660 hc         1 Y7L       0.040200
     52 H20         25.4930   -16.2000   -16.6380 hc         1 Y7L       0.040200
     53 H21         26.4630    -8.2240   -19.9080 hn         1 Y7L       0.519500
     54 H22         25.1090    -8.7700   -19.0800 hn         1 Y7L       0.519500
     55 H23         27.8430   -10.0490   -16.5170 hn         1 Y7L       0.314500
     56 C17         25.8830   -10.1640   -17.0640 c          1 Y7L       0.612700
@<TRIPOS>BOND
     1     1     2 1   
     2     1     8 1   
     3     1    23 2   
     4     2     4 1   
     5     2    18 1   
     6     3     4 2   
     7     3    23 1   
     8     3    33 1   
     9     4    34 1   
    10     5     6 2   
    11     5    23 1   
    12     6     7 1   
    13     6    24 1   
    14     7     8 1   
    15     7    35 1   
    16     8    26 2   
    17     9    10 2   
    18     9    32 1   
    19     9    56 1   
    20    10    11 1   
    21    10    36 1   
    22    11    12 2   
    23    11    37 1   
    24    12    22 1   
    25    12    32 1   
    26    13    14 1   
    27    13    17 1   
    28    13    25 1   
    29    13    38 1   
    30    14    15 1   
    31    14    39 1   
    32    14    40 1   
    33    15    16 1   
    34    15    41 1   
    35    15    42 1   
    36    16    28 1   
    37    16    29 1   
    38    17    30 1   
    39    17    31 1   
    40    18    19 1   
    41    18    43 1   
    42    18    44 1   
    43    19    20 1   
    44    19    45 1   
    45    19    46 1   
    46    20    21 1   
    47    20    47 1   
    48    20    48 1   
    49    21    22 1   
    50    21    49 1   
    51    21    50 1   
    52    22    51 1   
    53    22    52 1   
    54    24    53 1   
    55    24    54 1   
    56    25    55 1   
    57    25    56 1   
    58    27    56 2   
@<TRIPOS>SUBSTRUCTURE
     1 Y7L         1 TEMP              0 ****  ****    0 ROOT
