@<TRIPOS>MOLECULE
Y7L
   56    58     1     0     0
SMALL
abcg2


@<TRIPOS>ATOM
      1 C8          25.7830   -12.4000   -21.7740 cc         1 Y7L      -0.344600
      2 N7          26.0610   -13.6150   -22.3750 na         1 Y7L       0.030000
      3 C5          28.0070   -12.4880   -22.2200 cd         1 Y7L      -0.195000
      4 C6          27.4000   -13.6610   -22.6270 cc         1 Y7L      -0.161000
      5 N1          27.0810   -10.4300   -21.1080 nd         1 Y7L      -0.657100
      6 C2          25.9610    -9.9260   -20.6590 cc         1 Y7L       0.696800
      7 N3          24.7580   -10.5870   -20.7510 ns         1 Y7L      -0.441400
      8 C4          24.5560   -11.8500   -21.3170 c          1 Y7L       0.610600
      9 C13         26.1430   -11.3670   -17.2180 cc         1 Y7L      -0.238600
     10 C14         27.2790   -12.1290   -17.0870 cd         1 Y7L      -0.106000
     11 C15         27.0210   -13.5200   -17.1200 cd         1 Y7L      -0.139000
     12 C16         25.6890   -13.8200   -17.2710 cc         1 Y7L      -0.246300
     13 C20         27.0440    -7.7180   -16.7970 c3         1 Y7L      -0.047300
     14 C21         27.4830    -7.3860   -15.3640 c3         1 Y7L      -0.054400
     15 C22         26.5410    -7.9440   -14.3060 c3         1 Y7L      -0.198400
     16 C23         26.9500    -7.6900   -12.8430 c          1 Y7L       0.707000
     17 C26         27.8940    -6.9720   -17.8640 c          1 Y7L       0.704000
     18 C29         25.1720   -14.7740   -22.4590 c3         1 Y7L       0.075600
     19 C30         25.3430   -15.7170   -21.2640 c3         1 Y7L      -0.087400
     20 C31         25.0340   -15.0470   -19.9310 c3         1 Y7L      -0.088400
     21 C32         25.3980   -15.8830   -18.7120 c3         1 Y7L      -0.065400
     22 C33         25.0510   -15.1730   -17.3920 c3         1 Y7L       0.006900
     23 C9          26.9840   -11.6770   -21.6650 cd         1 Y7L       0.209400
     24 N11         25.9270    -8.6790   -20.1130 nv         1 Y7L      -1.010200
     25 N19         27.0420    -9.1560   -17.0030 ns         1 Y7L      -0.416900
     26 O10         23.4180   -12.3290   -21.3630 o          1 Y7L      -0.616000
     27 O18         24.7960    -9.4290   -17.2440 o          1 Y7L      -0.685100
     28 O24         26.0310    -7.7820   -11.9840 o          1 Y7L      -0.761500
     29 O25         28.1590    -7.4400   -12.5980 o          1 Y7L      -0.761500
     30 O27         28.0710    -5.7500   -17.6680 o          1 Y7L      -0.729000
     31 O28         28.3100    -7.6350   -18.8530 o          1 Y7L      -0.729000
     32 S12         24.7510   -12.3800   -17.3880 ss         1 Y7L       0.264000
     33 H1          29.0520   -12.2410   -22.3150 ha         1 Y7L       0.141000
     34 H2          27.8330   -14.5390   -23.0790 h4         1 Y7L       0.125000
     35 H3          23.9260   -10.1400   -20.3880 hn         1 Y7L       0.329500
     36 H4          28.2700   -11.7170   -16.9560 ha         1 Y7L       0.142000
     37 H5          27.7880   -14.2770   -17.0340 ha         1 Y7L       0.116000
     38 H6          26.0140    -7.3880   -16.9400 h1         1 Y7L       0.059700
     39 H7          28.4930    -7.7710   -15.2020 hc         1 Y7L       0.053700
     40 H8          27.5430    -6.3010   -15.2790 hc         1 Y7L       0.053700
     41 H9          25.5320    -7.5480   -14.4520 hc         1 Y7L       0.017200
     42 H10         26.4550    -9.0300   -14.4190 hc         1 Y7L       0.017200
     43 H11         24.1530   -14.4010   -22.5120 h1         1 Y7L       0.060200
     44 H12         25.3980   -15.2960   -23.3890 h1         1 Y7L       0.060200
     45 H13         24.6900   -16.5810   -21.4190 hc         1 Y7L       0.032700
     46 H14         26.3710   -16.0930   -21.2600 hc         1 Y7L       0.032700
     47 H15         25.5850   -14.1070   -19.8730 hc         1 Y7L       0.065200
     48 H16         23.9730   -14.7790   -19.8930 hc         1 Y7L       0.065200
     49 H17         24.8760   -16.8450   -18.7360 hc         1 Y7L       0.027200
     50 H18         26.4700   -16.1030   -18.7300 hc         1 Y7L       0.027200
     51 H19         23.9660   -15.0730   -17.3120 hc         1 Y7L       0.040200
     52 H20         25.3740   -15.7930   -16.5520 hc         1 Y7L       0.040200
     53 H21         26.8310    -8.3450   -19.7650 hn         1 Y7L       0.519500
     54 H22         25.1750    -8.5060   -19.4600 hn         1 Y7L       0.519500
     55 H23         27.9400    -9.6130   -17.0000 hn         1 Y7L       0.314500
     56 C17         25.9400    -9.9070   -17.1600 c          1 Y7L       0.612700
@<TRIPOS>BOND
     1     1     2 1   
     2     1     8 1   
     3     1    23 2   
     4     2     4 1   
     5     2    18 1   
     6     3     4 2   
     7     3    23 1   
     8     3    33 1   
     9     4    34 1   
    10     5     6 2   
    11     5    23 1   
    12     6     7 1   
    13     6    24 1   
    14     7     8 1   
    15     7    35 1   
    16     8    26 2   
    17     9    10 2   
    18     9    32 1   
    19     9    56 1   
    20    10    11 1   
    21    10    36 1   
    22    11    12 2   
    23    11    37 1   
    24    12    22 1   
    25    12    32 1   
    26    13    14 1   
    27    13    17 1   
    28    13    25 1   
    29    13    38 1   
    30    14    15 1   
    31    14    39 1   
    32    14    40 1   
    33    15    16 1   
    34    15    41 1   
    35    15    42 1   
    36    16    28 1   
    37    16    29 1   
    38    17    30 1   
    39    17    31 1   
    40    18    19 1   
    41    18    43 1   
    42    18    44 1   
    43    19    20 1   
    44    19    45 1   
    45    19    46 1   
    46    20    21 1   
    47    20    47 1   
    48    20    48 1   
    49    21    22 1   
    50    21    49 1   
    51    21    50 1   
    52    22    51 1   
    53    22    52 1   
    54    24    53 1   
    55    24    54 1   
    56    25    55 1   
    57    25    56 1   
    58    27    56 2   
@<TRIPOS>SUBSTRUCTURE
     1 Y7L         1 TEMP              0 ****  ****    0 ROOT
