@<TRIPOS>MOLECULE
Y7N
   56    59     1     0     0
SMALL
bcc


@<TRIPOS>ATOM
      1 C1          -3.2800    -3.7670    -0.4960 ca         1 Y7N      -0.135000
      2 C2          -2.5450    -4.9490    -0.4580 ca         1 Y7N      -0.146000
      3 C3          -2.6500    -2.5360    -0.3780 ca         1 Y7N      -0.094000
      4 C4          -2.4730    -0.0720     1.7630 ca         1 Y7N      -0.147000
      5 C5          -1.1630    -4.9120    -0.3110 ca         1 Y7N      -0.126000
      6 C6          -3.7000     0.3790     2.2550 ca         1 Y7N      -0.150000
      7 C7          -1.2670    -2.4940    -0.2210 ca         1 Y7N      -0.020800
      8 C8          -1.8770     0.4720     0.6290 ca         1 Y7N      -0.059800
      9 C9          -2.5050     1.5250    -0.0790 ca         1 Y7N      -0.085600
     10 C10         -0.5320    -3.6840    -0.1990 ca         1 Y7N      -0.100300
     11 C11         -4.3020     1.3910     1.5520 ca         1 Y7N       0.025100
     12 C12         -3.7280     1.9330     0.4130 ca         1 Y7N       0.066100
     13 C13         -0.3470    -1.3550    -0.1160 ce         1 Y7N      -0.143400
     14 C14         -0.5770    -0.0770     0.1970 cf         1 Y7N       0.005800
     15 C15         -1.9130     2.1730    -1.3200 c          1 Y7N       0.930200
     16 C17          0.9320    -3.4000    -0.0360 c5         1 Y7N      -0.043100
     17 C18         -5.5390     3.1130     0.9200 c5         1 Y7N       0.319200
     18 C19          1.0330    -1.9160    -0.4350 c5         1 Y7N       0.144900
     19 C20          4.0420     0.2250     0.3950 c3         1 Y7N      -0.160400
     20 C21          5.4100     0.4300    -0.2400 c3         1 Y7N      -0.063400
     21 C22          6.3470     1.2210     0.6640 c3         1 Y7N      -0.077400
     22 C23          7.7160     1.4520     0.0370 c3         1 Y7N      -0.078400
     23 C24          8.6500     2.2430     0.9390 c3         1 Y7N       0.148800
     24 N26          2.1220    -1.2140     0.1810 ns         1 Y7N      -0.565900
     25 N25          9.9470     2.4400     0.3070 n8         1 Y7N      -0.886800
     26 O31         -2.7160     2.4570    -2.2260 o          1 Y7N      -0.806800
     27 O27         -0.6840     2.3710    -1.3120 o          1 Y7N      -0.806800
     28 O28          3.1390    -0.5020    -1.7080 o          1 Y7N      -0.593100
     29 O29         -5.4910     1.9990     1.7990 os         1 Y7N      -0.344900
     30 O30         -4.5540     2.8960    -0.0750 os         1 Y7N      -0.279900
     31 H1          -4.3540    -3.8080    -0.6230 ha         1 Y7N       0.123000
     32 H2          -3.0520    -5.9010    -0.5540 ha         1 Y7N       0.115000
     33 H3          -3.2360    -1.6280    -0.4200 ha         1 Y7N       0.159000
     34 H5          -0.5900    -5.8310    -0.2920 ha         1 Y7N       0.117000
     35 H6          -4.1440    -0.0470     3.1440 ha         1 Y7N       0.128000
     36 H14          0.2580     0.6110     0.1660 ha         1 Y7N       0.162000
     37 H171         1.2350    -3.5340     1.0080 hc         1 Y7N       0.045700
     38 H172         1.5710    -4.0410    -0.6440 hc         1 Y7N       0.045700
     39 H19          1.1820    -1.8640    -1.5160 h1         1 Y7N       0.099700
     40 H201         3.5890     1.1980     0.6150 hc         1 Y7N       0.055700
     41 H202         4.1460    -0.2780     1.3610 hc         1 Y7N       0.055700
     42 H26          2.1290    -1.1770     1.1890 hn         1 Y7N       0.301500
     43 H181        -6.5240     3.1770     0.4580 h2         1 Y7N       0.043200
     44 H182        -5.3160     4.0330     1.4740 h2         1 Y7N       0.043200
     45 H211         5.8600    -0.5400    -0.4700 hc         1 Y7N       0.054200
     46 H212         5.2990     0.9520    -1.1930 hc         1 Y7N       0.054200
     47 H221         5.8880     2.1860     0.9070 hc         1 Y7N       0.034200
     48 H222         6.4670     0.6960     1.6170 hc         1 Y7N       0.034200
     49 H231         8.1810     0.4920    -0.2060 hc         1 Y7N       0.047200
     50 H232         7.5930     1.9840    -0.9130 hc         1 Y7N       0.047200
     51 H241         8.1550     3.1830     1.2260 h1         1 Y7N       0.024200
     52 H242         8.8040     1.6870     1.8680 h1         1 Y7N       0.024200
     53 H251         9.8390     3.0560    -0.4890 hn         1 Y7N       0.332800
     54 H252        10.5620     2.9290     0.9460 hn         1 Y7N       0.332800
     55 C16          3.0720    -0.5310    -0.4880 c          1 Y7N       0.675100
     56 H4          -1.9670    -0.8720     2.2870 ha         1 Y7N       0.118000
@<TRIPOS>BOND
     1     1     2 ar  
     2     1     3 ar  
     3     1    31 1   
     4     2     5 ar  
     5     2    32 1   
     6     3     7 ar  
     7     3    33 1   
     8     4     6 ar  
     9     4     8 ar  
    10     4    56 1   
    11     5    10 ar  
    12     5    34 1   
    13     6    11 ar  
    14     6    35 1   
    15     7    10 ar  
    16     7    13 1   
    17     8     9 ar  
    18     8    14 1   
    19     9    12 ar  
    20     9    15 1   
    21    10    16 1   
    22    11    12 ar  
    23    11    29 1   
    24    12    30 1   
    25    13    14 2   
    26    13    18 1   
    27    14    36 1   
    28    15    26 1   
    29    15    27 1   
    30    16    18 1   
    31    16    37 1   
    32    16    38 1   
    33    17    29 1   
    34    17    30 1   
    35    17    43 1   
    36    17    44 1   
    37    18    24 1   
    38    18    39 1   
    39    19    20 1   
    40    19    40 1   
    41    19    41 1   
    42    19    55 1   
    43    20    21 1   
    44    20    45 1   
    45    20    46 1   
    46    21    22 1   
    47    21    47 1   
    48    21    48 1   
    49    22    23 1   
    50    22    49 1   
    51    22    50 1   
    52    23    25 1   
    53    23    51 1   
    54    23    52 1   
    55    24    42 1   
    56    24    55 1   
    57    25    53 1   
    58    25    54 1   
    59    28    55 2   
@<TRIPOS>SUBSTRUCTURE
     1 Y7N         1 TEMP              0 ****  ****    0 ROOT
