@<TRIPOS>MOLECULE
Y7N
   56    59     1     0     0
SMALL
No Charge or Current Charge


@<TRIPOS>ATOM
      1 C1          -1.9060    -4.0100     0.8680 ca         1 Y7N      -0.117000
      2 C2          -0.8430    -4.8660     0.5140 ca         1 Y7N      -0.128000
      3 C3          -1.8680    -2.6470     0.5110 ca         1 Y7N      -0.076000
      4 C4          -2.3000     0.4020     1.6010 ca         1 Y7N      -0.129000
      5 C5           0.2560    -4.3690    -0.2140 ca         1 Y7N      -0.108000
      6 C6          -3.3920     0.7630     2.4140 ca         1 Y7N      -0.132000
      7 C7          -0.7430    -2.1680    -0.1820 ca         1 Y7N      -0.020800
      8 C8          -2.2670     0.7500     0.2270 ca         1 Y7N      -0.059800
      9 C9          -3.3360     1.5020    -0.3350 ca         1 Y7N      -0.085600
     10 C10          0.2850    -3.0080    -0.5610 ca         1 Y7N      -0.100300
     11 C11         -4.4370     1.4800     1.8250 ca         1 Y7N       0.025100
     12 C12         -4.4110     1.8380     0.5050 ca         1 Y7N       0.066100
     13 C13         -0.4510    -0.8260    -0.6920 ce         1 Y7N      -0.143400
     14 C14         -1.0960     0.3760    -0.5870 cf         1 Y7N      -0.044200
     15 C15         -3.3500     1.9190    -1.7800 c          1 Y7N       0.719600
     16 C17          1.3590    -2.3180    -1.3900 c5         1 Y7N      -0.043100
     17 C18         -6.3300     2.5210     1.3690 c5         1 Y7N       0.365600
     18 C19          0.8390    -0.8150    -1.5210 c5         1 Y7N       0.144900
     19 C20          3.9640     1.1930    -0.6330 c3         1 Y7N      -0.160400
     20 C21          5.2130     0.3480    -0.2890 c3         1 Y7N      -0.063400
     21 C22          6.2410     1.1140     0.5740 c3         1 Y7N      -0.077400
     22 C23          7.4890     0.2720     0.9190 c3         1 Y7N      -0.078400
     23 C24          8.5100     1.0420     1.7810 c3         1 Y7N       0.148800
     24 N26          1.8350    -0.0090    -0.8040 ns         1 Y7N      -0.498900
     25 N25          9.6890     0.2140     2.0960 n8         1 Y7N      -0.997200
     26 O31         -4.1430     1.3710    -2.5330 o          1 Y7N      -0.701500
     27 O27         -2.5500     2.7720    -2.1410 o          1 Y7N      -0.701500
     28 O28          3.1530     0.1730    -2.6690 o          1 Y7N      -0.593100
     29 O29         -5.5480     1.9270     2.4640 os         1 Y7N      -0.368100
     30 O30         -5.5070     2.5630     0.1530 os         1 Y7N      -0.303100
     31 H1          -2.7630    -4.4030     1.4110 ha         1 Y7N       0.105000
     32 H2          -0.8790    -5.9180     0.7880 ha         1 Y7N       0.097000
     33 H3          -2.7020    -1.9980     0.7560 ha         1 Y7N       0.141000
     34 H5           1.0660    -5.0310    -0.5100 ha         1 Y7N       0.099000
     35 H6          -3.4210     0.5000     3.4680 ha         1 Y7N       0.110000
     36 H14         -0.6620     1.2230    -1.1230 ha         1 Y7N       0.212000
     37 H171         2.3430    -2.3980    -0.9140 hc         1 Y7N       0.045700
     38 H172         1.4540    -2.7800    -2.3790 hc         1 Y7N       0.045700
     39 H19          0.6750    -0.5090    -2.5650 h1         1 Y7N       0.099700
     40 H201         4.2860     2.0730    -1.2030 hc         1 Y7N       0.055700
     41 H202         3.4910     1.5100     0.3040 hc         1 Y7N       0.055700
     42 H26          1.7660     0.2220     0.1790 hn         1 Y7N       0.301500
     43 H181        -7.2090     1.8930     1.1800 h2         1 Y7N       0.043200
     44 H182        -6.6410     3.5360     1.6420 h2         1 Y7N       0.043200
     45 H211         4.8980    -0.5590     0.2440 hc         1 Y7N       0.054200
     46 H212         5.6950     0.0190    -1.2180 hc         1 Y7N       0.054200
     47 H221         6.5540     2.0200     0.0400 hc         1 Y7N       0.034200
     48 H222         5.7590     1.4400     1.5040 hc         1 Y7N       0.034200
     49 H231         7.1750    -0.6340     1.4550 hc         1 Y7N       0.047200
     50 H232         7.9710    -0.0540    -0.0110 hc         1 Y7N       0.047200
     51 H241         8.8450     1.9410     1.2440 h1         1 Y7N       0.024200
     52 H242         8.0390     1.3540     2.7230 h1         1 Y7N       0.024200
     53 H251        10.1800    -0.0110     1.2220 hn         1 Y7N       0.388000
     54 H252        10.3680     0.7840     2.6150 hn         1 Y7N       0.388000
     55 C16          2.9660     0.3980    -1.4810 c          1 Y7N       0.608100
     56 H4          -1.4690    -0.1470     2.0390 ha         1 Y7N       0.100000
@<TRIPOS>BOND
     1     1     2 ar  
     2     1     3 ar  
     3     1    31 1   
     4     2     5 ar  
     5     2    32 1   
     6     3     7 ar  
     7     3    33 1   
     8     4     6 ar  
     9     4     8 ar  
    10     4    56 1   
    11     5    10 ar  
    12     5    34 1   
    13     6    11 ar  
    14     6    35 1   
    15     7    10 ar  
    16     7    13 1   
    17     8     9 ar  
    18     8    14 1   
    19     9    12 ar  
    20     9    15 1   
    21    10    16 1   
    22    11    12 ar  
    23    11    29 1   
    24    12    30 1   
    25    13    14 2   
    26    13    18 1   
    27    14    36 1   
    28    15    26 1   
    29    15    27 1   
    30    16    18 1   
    31    16    37 1   
    32    16    38 1   
    33    17    29 1   
    34    17    30 1   
    35    17    43 1   
    36    17    44 1   
    37    18    24 1   
    38    18    39 1   
    39    19    20 1   
    40    19    40 1   
    41    19    41 1   
    42    19    55 1   
    43    20    21 1   
    44    20    45 1   
    45    20    46 1   
    46    21    22 1   
    47    21    47 1   
    48    21    48 1   
    49    22    23 1   
    50    22    49 1   
    51    22    50 1   
    52    23    25 1   
    53    23    51 1   
    54    23    52 1   
    55    24    42 1   
    56    24    55 1   
    57    25    53 1   
    58    25    54 1   
    59    28    55 2   
@<TRIPOS>SUBSTRUCTURE
     1 Y7N         1 TEMP              0 ****  ****    0 ROOT
