@<TRIPOS>MOLECULE
Y7V
   12    12     1     0     0
SMALL
No Charge or Current Charge


@<TRIPOS>ATOM
      1 C02        -37.1500    26.4730   -10.3800 ca         1 Y7V       0.171000
      2 C03        -37.9910    27.4260   -10.9780 ca         1 Y7V      -0.138000
      3 C04        -38.5640    27.1650   -12.2360 ca         1 Y7V      -0.086000
      4 C05        -38.2910    25.9480   -12.8890 ca         1 Y7V      -0.098000
      5 C06        -37.4480    25.0000   -12.2840 ca         1 Y7V       0.218000
      6 C08        -36.8760    25.2600   -11.0290 ca         1 Y7V      -0.125000
      7 F01        -36.6010    26.7270    -9.1720 f          1 Y7V      -0.174000
      8 I07        -37.0300    23.1300   -13.2910 i          1 Y7V      -0.302000
      9 H1         -38.1970    28.3630   -10.4670 ha         1 Y7V       0.136000
     10 H2         -39.2160    27.9000   -12.7030 ha         1 Y7V       0.122000
     11 H3         -38.7300    25.7390   -13.8610 ha         1 Y7V       0.132000
     12 H4         -36.2250    24.5260   -10.5640 ha         1 Y7V       0.145000
@<TRIPOS>BOND
     1     1     2 ar  
     2     1     6 ar  
     3     1     7 1   
     4     2     3 ar  
     5     2     9 1   
     6     3     4 ar  
     7     3    10 1   
     8     4     5 ar  
     9     4    11 1   
    10     5     6 ar  
    11     5     8 1   
    12     6    12 1   
@<TRIPOS>SUBSTRUCTURE
     1 Y7V         1 TEMP              0 ****  ****    0 ROOT
