@<TRIPOS>MOLECULE
Y7V
   12    12     1     0     0
SMALL
abcg2


@<TRIPOS>ATOM
      1 C02        -37.1660    26.4610   -10.4170 ca         1 Y7V       0.171000
      2 C03        -37.9880    27.4140   -10.9850 ca         1 Y7V      -0.138000
      3 C04        -38.5460    27.1420   -12.2250 ca         1 Y7V      -0.086000
      4 C05        -38.2870    25.9450   -12.8820 ca         1 Y7V      -0.098000
      5 C06        -37.4540    25.0170   -12.2750 ca         1 Y7V       0.218000
      6 C08        -36.8790    25.2580   -11.0360 ca         1 Y7V      -0.125000
      7 F01        -36.6180    26.7060    -9.2200 f          1 Y7V      -0.174000
      8 I07        -37.0420    23.2010   -13.2480 i          1 Y7V      -0.302000
      9 H1         -38.1890    28.3450   -10.4730 ha         1 Y7V       0.136000
     10 H2         -39.1930    27.8730   -12.6910 ha         1 Y7V       0.122000
     11 H3         -38.7300    25.7520   -13.8490 ha         1 Y7V       0.132000
     12 H4         -36.2260    24.5430   -10.5530 ha         1 Y7V       0.145000
@<TRIPOS>BOND
     1     1     2 ar  
     2     1     6 ar  
     3     1     7 1   
     4     2     3 ar  
     5     2     9 1   
     6     3     4 ar  
     7     3    10 1   
     8     4     5 ar  
     9     4    11 1   
    10     5     6 ar  
    11     5     8 1   
    12     6    12 1   
@<TRIPOS>SUBSTRUCTURE
     1 Y7V         1 TEMP              0 ****  ****    0 ROOT
