@<TRIPOS>MOLECULE
Y7W
   55    57     1     0     0
SMALL
No Charge or Current Charge


@<TRIPOS>ATOM
      1 N3         -21.4570     1.4750     0.2260 nt         1 Y7W      -0.600000
      2 C4         -22.8900     3.2730     0.9330 cc         1 Y7W      -0.353600
      3 C5         -23.9680     3.1170     0.0240 cc         1 Y7W       0.380500
      4 C6         -24.3720     1.9000    -0.7080 ca         1 Y7W      -0.138500
      5 C7         -24.2020     0.6090    -0.1570 ca         1 Y7W      -0.089500
      6 C8         -24.6530    -0.5330    -0.8400 ca         1 Y7W      -0.104500
      7 C13        -23.6860    -3.6140    -5.3970 ca         1 Y7W      -0.157600
      8 C15        -22.7780    -5.1720    -7.0640 ca         1 Y7W       0.122000
      9 C17        -21.5750    -4.4610    -7.0990 ca         1 Y7W      -0.087000
     10 C21        -21.0740    -0.9900    -4.6290 c3         1 Y7W       0.154900
     11 C24        -25.0960     2.0150    -1.9170 ca         1 Y7W      -0.089500
     12 C28        -25.2160     7.1260    -0.0210 c3         1 Y7W      -0.101100
     13 C2         -21.7030     2.4270     1.1400 c          1 Y7W       0.660700
     14 C9         -25.3190    -0.4090    -2.0720 ca         1 Y7W      -0.101300
     15 N11        -24.7600    -2.1390    -3.7140 ns         1 Y7W      -0.495900
     16 C12        -24.8730    -3.2420    -4.5210 c          1 Y7W       0.615700
     17 C14        -23.8210    -4.7570    -6.2260 ca         1 Y7W      -0.062000
     18 F16        -22.9350    -6.2650    -7.8420 f          1 Y7W      -0.178000
     19 C18        -21.4140    -3.3260    -6.2890 ca         1 Y7W      -0.183000
     20 C19        -22.4570    -2.8900    -5.4350 ca         1 Y7W       0.153100
     21 O20        -22.2860    -1.7700    -4.6420 os         1 Y7W      -0.375100
     22 O22        -25.9070    -3.8970    -4.5250 o          1 Y7W      -0.615100
     23 C23        -25.5460     0.8730    -2.6010 ca         1 Y7W      -0.104500
     24 N25        -24.7770     4.1640     0.0070 nd         1 Y7W      -0.504800
     25 N26        -24.2280     5.0180     0.9520 na         1 Y7W       0.055800
     26 C27        -24.8650     6.3240     1.2620 c3         1 Y7W       0.057300
     27 C29        -26.0680     6.1770     2.2360 c3         1 Y7W       0.278000
     28 F30        -25.7130     5.4990     3.3520 f          1 Y7W      -0.104333
     29 F31        -26.5250     7.3900     2.6260 f          1 Y7W      -0.104333
     30 F32        -27.1000     5.5150     1.6610 f          1 Y7W      -0.104333
     31 C33        -23.0830     4.4640     1.5430 cd         1 Y7W       0.333000
     32 N34        -22.3230     5.0940     2.4880 nv         1 Y7W      -1.069000
     33 H1         -20.6340     0.9020     0.3260 hn         1 Y7W       0.319000
     34 H2         -22.0880     1.3450    -0.5500 hn         1 Y7W       0.319000
     35 H3         -23.7520     0.4810     0.8250 ha         1 Y7W       0.126000
     36 H4         -24.4980    -1.5170    -0.4010 ha         1 Y7W       0.121000
     37 H5         -26.6970    -1.4070    -3.4000 h1         1 Y7W       0.071200
     38 H6         -26.0600    -2.4360    -2.0990 h1         1 Y7W       0.071200
     39 H7         -20.7700    -4.7890    -7.7520 ha         1 Y7W       0.136000
     40 H8         -21.1690    -0.1530    -3.9270 h1         1 Y7W       0.048367
     41 H9         -20.2190    -1.6010    -4.3130 h1         1 Y7W       0.048367
     42 H10        -20.8650    -0.5760    -5.6230 h1         1 Y7W       0.048367
     43 H11        -25.2920     2.9950    -2.3460 ha         1 Y7W       0.126000
     44 H12        -25.5720     8.1320     0.2320 hc         1 Y7W       0.065700
     45 H13        -24.3310     7.2330    -0.6600 hc         1 Y7W       0.065700
     46 H14        -25.9980     6.6230    -0.6020 hc         1 Y7W       0.065700
     47 H15        -23.8780    -1.6420    -3.7590 hn         1 Y7W       0.335500
     48 H16        -24.7420    -5.3350    -6.2250 ha         1 Y7W       0.163000
     49 H17        -20.4670    -2.7970    -6.3410 ha         1 Y7W       0.124000
     50 H18        -26.0750     0.9870    -3.5450 ha         1 Y7W       0.121000
     51 H19        -24.1170     6.9250     1.7930 h1         1 Y7W       0.077700
     52 H20        -21.4430     4.6490     2.7520 hn         1 Y7W       0.493000
     53 H21        -22.4010     6.0960     2.6430 hn         1 Y7W       0.493000
     54 C10        -25.7980    -1.6450    -2.8150 c3         1 Y7W       0.144300
     55 O1         -20.8980     2.5880     2.0410 o          1 Y7W      -0.670100
@<TRIPOS>BOND
     1     1    13 1   
     2     1    33 1   
     3     1    34 1   
     4     2     3 1   
     5     2    13 1   
     6     2    31 2   
     7     3     4 1   
     8     3    24 2   
     9     4     5 ar  
    10     4    11 ar  
    11     5     6 ar  
    12     5    35 1   
    13     6    14 ar  
    14     6    36 1   
    15     7    16 1   
    16     7    17 ar  
    17     7    20 ar  
    18     8     9 ar  
    19     8    17 ar  
    20     8    18 1   
    21     9    19 ar  
    22     9    39 1   
    23    10    21 1   
    24    10    40 1   
    25    10    41 1   
    26    10    42 1   
    27    11    23 ar  
    28    11    43 1   
    29    12    26 1   
    30    12    44 1   
    31    12    45 1   
    32    12    46 1   
    33    13    55 2   
    34    14    23 ar  
    35    14    54 1   
    36    15    16 1   
    37    15    47 1   
    38    15    54 1   
    39    16    22 2   
    40    17    48 1   
    41    19    20 ar  
    42    19    49 1   
    43    20    21 1   
    44    23    50 1   
    45    24    25 1   
    46    25    26 1   
    47    25    31 1   
    48    26    27 1   
    49    26    51 1   
    50    27    28 1   
    51    27    29 1   
    52    27    30 1   
    53    31    32 1   
    54    32    52 1   
    55    32    53 1   
    56    37    54 1   
    57    38    54 1   
@<TRIPOS>SUBSTRUCTURE
     1 Y7W         1 TEMP              0 ****  ****    0 ROOT
