@<TRIPOS>MOLECULE
Y7W
   55    57     1     0     0
SMALL
abcg2


@<TRIPOS>ATOM
      1 N3         -21.4000     1.5150     1.0970 nt         1 Y7W      -0.600000
      2 C4         -22.9750     3.3510     1.1300 cc         1 Y7W      -0.353600
      3 C5         -24.0240     2.9150     0.2630 cc         1 Y7W       0.380500
      4 C6         -24.2750     1.5730    -0.2930 ca         1 Y7W      -0.138500
      5 C7         -24.3520     0.4550     0.5410 ca         1 Y7W      -0.089500
      6 C8         -24.5890    -0.8070     0.0100 ca         1 Y7W      -0.104500
      7 C13        -23.8870    -2.9490    -5.5180 ca         1 Y7W      -0.157600
      8 C15        -23.7260    -3.5690    -7.8370 ca         1 Y7W       0.122000
      9 C17        -22.3670    -3.3280    -7.8550 ca         1 Y7W      -0.087000
     10 C21        -20.5270    -1.9510    -4.3480 c3         1 Y7W       0.154900
     11 C24        -24.4560     1.3970    -1.6680 ca         1 Y7W      -0.089500
     12 C28        -25.3400     6.7090    -0.8430 c3         1 Y7W      -0.101100
     13 C2         -21.7410     2.7220     1.5960 c          1 Y7W       0.660700
     14 C9         -24.7620    -0.9830    -1.3610 ca         1 Y7W      -0.101300
     15 N11        -24.2690    -2.6220    -3.1310 ns         1 Y7W      -0.495900
     16 C12        -24.8220    -2.7740    -4.3490 c          1 Y7W       0.615700
     17 C14        -24.4840    -3.3850    -6.7030 ca         1 Y7W      -0.062000
     18 F16        -24.3360    -3.9970    -8.9750 f          1 Y7W      -0.178000
     19 C18        -21.7560    -2.8870    -6.6890 ca         1 Y7W      -0.183000
     20 C19        -22.4980    -2.6930    -5.5220 ca         1 Y7W       0.153100
     21 O20        -21.9260    -2.2490    -4.3710 os         1 Y7W      -0.375100
     22 O22        -26.0440    -2.7940    -4.5270 o          1 Y7W      -0.615100
     23 C23        -24.6930     0.1350    -2.1930 ca         1 Y7W      -0.104500
     24 N25        -24.8540     3.9020    -0.0210 nd         1 Y7W      -0.504800
     25 N26        -24.3740     4.9980     0.6570 na         1 Y7W       0.055800
     26 C27        -25.0790     6.2620     0.5900 c3         1 Y7W       0.057300
     27 C29        -26.3700     6.2060     1.4150 c3         1 Y7W       0.278000
     28 F30        -26.1590     5.6900     2.6410 f          1 Y7W      -0.104333
     29 F31        -26.8640     7.4520     1.5850 f          1 Y7W      -0.104333
     30 F32        -27.3430     5.4750     0.8390 f          1 Y7W      -0.104333
     31 C33        -23.2560     4.7070     1.3640 cd         1 Y7W       0.333000
     32 N34        -22.5970     5.5820     2.1650 nv         1 Y7W      -1.069000
     33 H1         -20.5410     1.0900     1.4060 hn         1 Y7W       0.319000
     34 H2         -21.9560     1.0370     0.4080 hn         1 Y7W       0.319000
     35 H3         -24.2210     0.5730     1.6090 ha         1 Y7W       0.126000
     36 H4         -24.6380    -1.6650     0.6700 ha         1 Y7W       0.121000
     37 H5         -26.0890    -2.4590    -2.1880 h1         1 Y7W       0.071200
     38 H6         -24.8060    -3.1160    -1.1770 h1         1 Y7W       0.071200
     39 H7         -21.7940    -3.4790    -8.7590 ha         1 Y7W       0.136000
     40 H8         -20.3200    -1.6110    -3.3370 h1         1 Y7W       0.048367
     41 H9         -19.9360    -2.8420    -4.5680 h1         1 Y7W       0.048367
     42 H10        -20.2900    -1.1610    -5.0620 h1         1 Y7W       0.048367
     43 H11        -24.3940     2.2550    -2.3250 ha         1 Y7W       0.126000
     44 H12        -25.8500     7.6710    -0.8480 hc         1 Y7W       0.065700
     45 H13        -24.3860     6.8170    -1.3590 hc         1 Y7W       0.065700
     46 H14        -25.9470     5.9780    -1.3730 hc         1 Y7W       0.065700
     47 H15        -23.2620    -2.5550    -3.0810 hn         1 Y7W       0.335500
     48 H16        -25.5470    -3.5750    -6.7160 ha         1 Y7W       0.163000
     49 H17        -20.6960    -2.6910    -6.7000 ha         1 Y7W       0.124000
     50 H18        -24.8130     0.0170    -3.2630 ha         1 Y7W       0.121000
     51 H19        -24.4650     7.0060     1.0960 h1         1 Y7W       0.077700
     52 H20        -21.7100     5.2100     2.4870 hn         1 Y7W       0.493000
     53 H21        -22.5900     6.5580     1.9090 hn         1 Y7W       0.493000
     54 C10        -25.0350    -2.3580    -1.9280 c3         1 Y7W       0.144300
     55 O1         -21.0000     3.2990     2.4140 o          1 Y7W      -0.670100
@<TRIPOS>BOND
     1     1    13 1   
     2     1    33 1   
     3     1    34 1   
     4     2     3 1   
     5     2    13 1   
     6     2    31 2   
     7     3     4 1   
     8     3    24 2   
     9     4     5 ar  
    10     4    11 ar  
    11     5     6 ar  
    12     5    35 1   
    13     6    14 ar  
    14     6    36 1   
    15     7    16 1   
    16     7    17 ar  
    17     7    20 ar  
    18     8     9 ar  
    19     8    17 ar  
    20     8    18 1   
    21     9    19 ar  
    22     9    39 1   
    23    10    21 1   
    24    10    40 1   
    25    10    41 1   
    26    10    42 1   
    27    11    23 ar  
    28    11    43 1   
    29    12    26 1   
    30    12    44 1   
    31    12    45 1   
    32    12    46 1   
    33    13    55 2   
    34    14    23 ar  
    35    14    54 1   
    36    15    16 1   
    37    15    47 1   
    38    15    54 1   
    39    16    22 2   
    40    17    48 1   
    41    19    20 ar  
    42    19    49 1   
    43    20    21 1   
    44    23    50 1   
    45    24    25 1   
    46    25    26 1   
    47    25    31 1   
    48    26    27 1   
    49    26    51 1   
    50    27    28 1   
    51    27    29 1   
    52    27    30 1   
    53    31    32 1   
    54    32    52 1   
    55    32    53 1   
    56    37    54 1   
    57    38    54 1   
@<TRIPOS>SUBSTRUCTURE
     1 Y7W         1 TEMP              0 ****  ****    0 ROOT
