@<TRIPOS>MOLECULE
Y7Y
   41    42     1     0     0
SMALL
No Charge or Current Charge


@<TRIPOS>ATOM
      1 CAU          8.1350     0.5300     0.6870 c3         1 Y7Y       0.152900
      2 OAT          6.9180    -0.1610     0.3520 os         1 Y7Y      -0.448100
      3 CAR          6.1490     0.3440    -0.6640 c          1 Y7Y       0.590100
      4 OAS          6.4160     1.3560    -1.2980 o          1 Y7Y      -0.487000
      5 CAQ          4.8820    -0.4860    -0.8870 c3         1 Y7Y      -0.139400
      6 CAP          3.6850     0.0910    -0.0940 c3         1 Y7Y      -0.067400
      7 CAO          2.3860    -0.7240    -0.2860 c3         1 Y7Y      -0.078400
      8 CAM          1.1880    -0.1480     0.5040 c3         1 Y7Y      -0.058400
      9 CAC         -0.1230    -0.9670     0.3610 c5         1 Y7Y       0.060300
     10 SAB         -0.8040    -0.8700    -1.3530 ss         1 Y7Y      -0.408000
     11 CAA         -2.3020    -1.7510    -0.7200 c5         1 Y7Y       0.044600
     12 CAE         -2.6630    -1.1110     0.6700 c5         1 Y7Y       0.110700
     13 CAD         -1.3170    -0.5430     1.2910 c5         1 Y7Y       0.103700
     14 NAF         -1.4830     0.9090     1.1350 ns         1 Y7Y      -0.516900
     15 CAG         -2.6850     1.2640     0.6190 c          1 Y7Y       0.638000
     16 OAN         -3.0160     2.4240     0.4430 o          1 Y7Y      -0.523000
     17 NAH         -3.4290     0.1250     0.3780 n          1 Y7Y      -0.386400
     18 CAV         -4.7790     0.0290     0.0120 c          1 Y7Y       0.662100
     19 OAW         -5.3590    -1.0430    -0.1060 o          1 Y7Y      -0.533000
     20 OAX         -5.3800     1.2410    -0.1850 os         1 Y7Y      -0.404100
     21 CAY         -6.7690     1.2570    -0.5600 c3         1 Y7Y       0.164900
     22 H1           7.9270     1.5610     1.0030 h1         1 Y7Y       0.048367
     23 H2           8.6490     0.0200     1.5120 h1         1 Y7Y       0.048367
     24 H3           8.8180     0.5600    -0.1720 h1         1 Y7Y       0.048367
     25 H4           4.6380    -0.4880    -1.9550 hc         1 Y7Y       0.072200
     26 H5           5.0560    -1.5070    -0.5280 hc         1 Y7Y       0.072200
     27 H6           3.9390     0.1200     0.9730 hc         1 Y7Y       0.054700
     28 H7           3.5100     1.1280    -0.4090 hc         1 Y7Y       0.054700
     29 H8           2.1380    -0.7530    -1.3550 hc         1 Y7Y       0.047700
     30 H9           2.5600    -1.7600     0.0300 hc         1 Y7Y       0.047700
     31 H10          1.4640    -0.1010     1.5650 hc         1 Y7Y       0.051700
     32 H11          1.0230     0.8870     0.1800 hc         1 Y7Y       0.051700
     33 H12          0.1220    -2.0190     0.5650 h1         1 Y7Y       0.073700
     34 H13         -3.1240    -1.6930    -1.4450 h1         1 Y7Y       0.089700
     35 H14         -2.0530    -2.8130    -0.5940 h1         1 Y7Y       0.089700
     36 H15         -3.2000    -1.7980     1.3390 h1         1 Y7Y       0.089700
     37 H16         -1.1700    -0.8390     2.3390 h1         1 Y7Y       0.069700
     38 H17         -0.8200     1.6310     1.3870 hn         1 Y7Y       0.350500
     39 H18         -6.9240     0.7280    -1.5090 h1         1 Y7Y       0.052367
     40 H19         -7.3880     0.7790     0.2100 h1         1 Y7Y       0.052367
     41 H20         -7.1180     2.2890    -0.6850 h1         1 Y7Y       0.052367
@<TRIPOS>BOND
     1     1     2 1   
     2     1    22 1   
     3     1    23 1   
     4     1    24 1   
     5     2     3 1   
     6     3     4 2   
     7     3     5 1   
     8     5     6 1   
     9     5    25 1   
    10     5    26 1   
    11     6     7 1   
    12     6    27 1   
    13     6    28 1   
    14     7     8 1   
    15     7    29 1   
    16     7    30 1   
    17     8     9 1   
    18     8    31 1   
    19     8    32 1   
    20     9    10 1   
    21     9    13 1   
    22     9    33 1   
    23    10    11 1   
    24    11    12 1   
    25    11    34 1   
    26    11    35 1   
    27    12    13 1   
    28    12    17 1   
    29    12    36 1   
    30    13    14 1   
    31    13    37 1   
    32    14    15 1   
    33    14    38 1   
    34    15    16 2   
    35    15    17 1   
    36    17    18 1   
    37    18    19 2   
    38    18    20 1   
    39    20    21 1   
    40    21    39 1   
    41    21    40 1   
    42    21    41 1   
@<TRIPOS>SUBSTRUCTURE
     1 Y7Y         1 TEMP              0 ****  ****    0 ROOT
