@<TRIPOS>MOLECULE
Y7Y
   41    42     1     0     0
SMALL
bcc


@<TRIPOS>ATOM
      1 CAU          8.4160     0.3630    -0.3800 c3         1 Y7Y       0.129700
      2 OAT          7.1410    -0.2500    -0.5670 os         1 Y7Y      -0.424900
      3 CAR          6.0910     0.3270     0.0060 c          1 Y7Y       0.639100
      4 OAS          6.1700     1.3280     0.6730 o          1 Y7Y      -0.536000
      5 CAQ          4.8210    -0.4230    -0.2910 c3         1 Y7Y      -0.139400
      6 CAP          3.5910     0.1670     0.3790 c3         1 Y7Y      -0.067400
      7 CAO          2.3370    -0.6360     0.0590 c3         1 Y7Y      -0.078400
      8 CAM          1.0920    -0.0480     0.7120 c3         1 Y7Y      -0.058400
      9 CAC         -0.1490    -0.8970     0.5090 c5         1 Y7Y       0.012400
     10 SAB         -0.6550    -1.0280    -1.2360 ss         1 Y7Y      -0.312200
     11 CAA         -2.2050    -1.7820    -0.6880 c5         1 Y7Y      -0.003300
     12 CAE         -2.6550    -0.9940     0.5470 c5         1 Y7Y       0.110700
     13 CAD         -1.4020    -0.3850     1.2300 c5         1 Y7Y       0.103700
     14 NAF         -1.6170     1.0250     1.0650 ns         1 Y7Y      -0.583900
     15 CAG         -2.7830     1.3760     0.4950 c          1 Y7Y       0.847500
     16 OAN         -3.1750     2.5000     0.2770 o          1 Y7Y      -0.598500
     17 NAH         -3.4540     0.1760     0.2110 n          1 Y7Y      -0.520400
     18 CAV         -4.7510     0.0090    -0.2040 c          1 Y7Y       0.778100
     19 OAW         -5.2450    -1.0870    -0.3290 o          1 Y7Y      -0.582000
     20 OAX         -5.3750     1.1460    -0.4380 os         1 Y7Y      -0.380900
     21 CAY         -6.7330     1.0550    -0.8690 c3         1 Y7Y       0.141700
     22 H1           8.6950     0.3920     0.6740 h1         1 Y7Y       0.048367
     23 H2           9.1270    -0.2530    -0.9220 h1         1 Y7Y       0.048367
     24 H3           8.4360     1.3750    -0.7840 h1         1 Y7Y       0.048367
     25 H4           4.6910    -0.4480    -1.3780 hc         1 Y7Y       0.072200
     26 H5           4.9590    -1.4660     0.0090 hc         1 Y7Y       0.072200
     27 H6           3.7370     0.1940     1.4620 hc         1 Y7Y       0.054700
     28 H7           3.4520     1.2020     0.0580 hc         1 Y7Y       0.054700
     29 H8           2.2000    -0.6780    -1.0260 hc         1 Y7Y       0.047700
     30 H9           2.4690    -1.6720     0.3910 hc         1 Y7Y       0.047700
     31 H10          1.2620     0.0470     1.7900 hc         1 Y7Y       0.051700
     32 H11          0.9230     0.9620     0.3300 hc         1 Y7Y       0.051700
     33 H12          0.0470    -1.9110     0.8740 h1         1 Y7Y       0.073700
     34 H13         -2.9380    -1.7690    -1.4910 h1         1 Y7Y       0.089700
     35 H14         -2.0280    -2.8230    -0.4110 h1         1 Y7Y       0.089700
     36 H15         -3.2060    -1.6420     1.2280 h1         1 Y7Y       0.089700
     37 H16         -1.3460    -0.6510     2.2890 h1         1 Y7Y       0.069700
     38 H17         -0.9980     1.7270     1.4360 hn         1 Y7Y       0.350500
     39 H18         -6.8200     0.5060    -1.8060 h1         1 Y7Y       0.052367
     40 H19         -7.3610     0.5840    -0.1140 h1         1 Y7Y       0.052367
     41 H20         -7.0610     2.0790    -1.0200 h1         1 Y7Y       0.052367
@<TRIPOS>BOND
     1     1     2 1   
     2     1    22 1   
     3     1    23 1   
     4     1    24 1   
     5     2     3 1   
     6     3     4 2   
     7     3     5 1   
     8     5     6 1   
     9     5    25 1   
    10     5    26 1   
    11     6     7 1   
    12     6    27 1   
    13     6    28 1   
    14     7     8 1   
    15     7    29 1   
    16     7    30 1   
    17     8     9 1   
    18     8    31 1   
    19     8    32 1   
    20     9    10 1   
    21     9    13 1   
    22     9    33 1   
    23    10    11 1   
    24    11    12 1   
    25    11    34 1   
    26    11    35 1   
    27    12    13 1   
    28    12    17 1   
    29    12    36 1   
    30    13    14 1   
    31    13    37 1   
    32    14    15 1   
    33    14    38 1   
    34    15    16 2   
    35    15    17 1   
    36    17    18 1   
    37    18    19 2   
    38    18    20 1   
    39    20    21 1   
    40    21    39 1   
    41    21    40 1   
    42    21    41 1   
@<TRIPOS>SUBSTRUCTURE
     1 Y7Y         1 TEMP              0 ****  ****    0 ROOT
