@<TRIPOS>MOLECULE
Y80
   49    52     1     0     0
SMALL
No Charge or Current Charge


@<TRIPOS>ATOM
      1 O3          -3.1420     2.3740    -2.7720 o          1 Y80      -0.525000
      2 C1          -3.2540     1.5250    -1.8960 c          1 Y80       0.555000
      3 N2          -4.4420     0.8770    -1.6520 ns         1 Y80      -0.144000
      4 C4          -4.6810    -0.0740    -0.6460 ca         1 Y80      -0.048000
      5 C5          -5.9930    -0.5110    -0.3940 ca         1 Y80      -0.145000
      6 C6          -6.2400    -1.4420     0.6250 ca         1 Y80      -0.088000
      7 C7          -5.1710    -1.9410     1.3850 ca         1 Y80      -0.124000
      8 C8          -3.8570    -1.5100     1.1280 ca         1 Y80      -0.068000
      9 C3          -3.5960    -0.5440     0.1280 ca         1 Y80      -0.083000
     10 N1          -2.2380    -0.1940    -0.2580 n          1 Y80      -0.226400
     11 C2          -2.0690     1.0920    -1.0140 c6         1 Y80       0.020000
     12 C9          -1.1290    -1.0880    -0.1190 c          1 Y80       0.622300
     13 O1          -1.3240    -2.2990    -0.0760 o          1 Y80      -0.567100
     14 C10          0.2970    -0.5560    -0.0460 ce         1 Y80      -0.137400
     15 C19          0.4890     0.8650     0.3700 ca         1 Y80      -0.064800
     16 C24         -0.0250     1.3210     1.6000 ca         1 Y80      -0.097000
     17 C23          0.1540     2.6590     1.9900 ca         1 Y80      -0.105500
     18 C22          0.8510     3.5480     1.1540 ca         1 Y80      -0.095000
     19 C21          1.3720     3.0970    -0.0700 ca         1 Y80      -0.105500
     20 C20          1.1930     1.7600    -0.4610 ca         1 Y80      -0.097000
     21 C11          1.3410    -1.4050    -0.3170 cf         1 Y80      -0.074200
     22 C12          2.8040    -1.1950    -0.2430 ca         1 Y80      -0.115800
     23 C17          3.3900    -0.3040     0.6810 ca         1 Y80      -0.048500
     24 C16          4.7850    -0.1420     0.7260 ca         1 Y80      -0.179500
     25 C15          5.6160    -0.8680    -0.1390 ca         1 Y80       0.154100
     26 O2           6.9780    -0.6660    -0.0470 os         1 Y80      -0.339100
     27 C18          7.9150    -1.3630    -0.8880 c3         1 Y80       0.147900
     28 C14          5.0400    -1.7750    -1.0520 ca         1 Y80      -0.179500
     29 C13          3.6440    -1.9380    -1.0970 ca         1 Y80      -0.048500
     30 H1          -5.2320     1.1450    -2.2240 hn         1 Y80       0.159000
     31 H2          -6.8210    -0.1270    -0.9860 ha         1 Y80       0.118000
     32 H3          -7.2550    -1.7800     0.8230 ha         1 Y80       0.117000
     33 H4          -5.3570    -2.6710     2.1700 ha         1 Y80       0.120000
     34 H5          -3.0490    -1.9190     1.7280 ha         1 Y80       0.139000
     35 H6          -1.2050     1.0250    -1.6880 h1         1 Y80       0.085700
     36 H7          -1.9050     1.9120    -0.3040 h1         1 Y80       0.085700
     37 H8          -0.5620     0.6370     2.2540 ha         1 Y80       0.118500
     38 H9          -0.2460     3.0060     2.9400 ha         1 Y80       0.114500
     39 H10          0.9900     4.5840     1.4570 ha         1 Y80       0.113000
     40 H11          1.9150     3.7840    -0.7160 ha         1 Y80       0.114500
     41 H12          1.6000     1.4150    -1.4090 ha         1 Y80       0.118500
     42 H13          1.0850    -2.4180    -0.6350 ha         1 Y80       0.184000
     43 H14          2.7760     0.2510     1.3840 ha         1 Y80       0.119500
     44 H15          5.2250     0.5480     1.4410 ha         1 Y80       0.124000
     45 H16          7.8440    -2.4480    -0.7350 h1         1 Y80       0.042033
     46 H17          7.7290    -1.1430    -1.9470 h1         1 Y80       0.042033
     47 H18          8.9410    -1.0530    -0.6520 h1         1 Y80       0.042033
     48 H19          5.6530    -2.3590    -1.7320 ha         1 Y80       0.124000
     49 H20          3.2130    -2.6400    -1.8080 ha         1 Y80       0.119500
@<TRIPOS>BOND
     1     1     2 2   
     2     2     3 1   
     3     2    11 1   
     4     3     4 1   
     5     3    30 1   
     6     4     5 ar  
     7     4     9 ar  
     8     5     6 ar  
     9     5    31 1   
    10     6     7 ar  
    11     6    32 1   
    12     7     8 ar  
    13     7    33 1   
    14     8     9 ar  
    15     8    34 1   
    16     9    10 1   
    17    10    11 1   
    18    10    12 1   
    19    11    35 1   
    20    11    36 1   
    21    12    13 2   
    22    12    14 1   
    23    14    15 1   
    24    14    21 2   
    25    15    16 ar  
    26    15    20 ar  
    27    16    17 ar  
    28    16    37 1   
    29    17    18 ar  
    30    17    38 1   
    31    18    19 ar  
    32    18    39 1   
    33    19    20 ar  
    34    19    40 1   
    35    20    41 1   
    36    21    22 1   
    37    21    42 1   
    38    22    23 ar  
    39    22    29 ar  
    40    23    24 ar  
    41    23    43 1   
    42    24    25 ar  
    43    24    44 1   
    44    25    26 1   
    45    25    28 ar  
    46    26    27 1   
    47    27    45 1   
    48    27    46 1   
    49    27    47 1   
    50    28    29 ar  
    51    28    48 1   
    52    29    49 1   
@<TRIPOS>SUBSTRUCTURE
     1 Y80         1 TEMP              0 ****  ****    0 ROOT
