@<TRIPOS>MOLECULE
Y80
   49    52     1     0     0
SMALL
abcg2


@<TRIPOS>ATOM
      1 O3          -2.0660     2.6020    -1.5930 o          1 Y80      -0.525000
      2 C1          -2.4950     1.5390    -1.2000 c          1 Y80       0.555000
      3 N2          -3.6110     1.4200    -0.4330 ns         1 Y80      -0.144000
      4 C4          -4.2050     0.1980    -0.1230 ca         1 Y80      -0.048000
      5 C5          -5.5490     0.1210     0.2220 ca         1 Y80      -0.145000
      6 C6          -6.1110    -1.1080     0.5320 ca         1 Y80      -0.088000
      7 C7          -5.3420    -2.2630     0.4760 ca         1 Y80      -0.124000
      8 C8          -4.0010    -2.1920     0.1260 ca         1 Y80      -0.068000
      9 C3          -3.4240    -0.9620    -0.1540 ca         1 Y80      -0.083000
     10 N1          -2.0680    -0.7620    -0.4940 n          1 Y80      -0.226400
     11 C2          -1.8840     0.2010    -1.5610 c6         1 Y80       0.020000
     12 C9          -1.0530    -1.2880     0.2570 c          1 Y80       0.622300
     13 O1          -1.2370    -2.2140     1.0240 o          1 Y80      -0.567100
     14 C10          0.2960    -0.6430     0.1380 ce         1 Y80      -0.137400
     15 C19          0.3520     0.8120     0.3960 ca         1 Y80      -0.064800
     16 C24         -0.3840     1.3580     1.4470 ca         1 Y80      -0.097000
     17 C23         -0.3640     2.7240     1.6900 ca         1 Y80      -0.105500
     18 C22          0.3840     3.5640     0.8790 ca         1 Y80      -0.095000
     19 C21          1.1090     3.0320    -0.1800 ca         1 Y80      -0.105500
     20 C20          1.0910     1.6690    -0.4210 ca         1 Y80      -0.097000
     21 C11          1.3390    -1.4520    -0.1040 cf         1 Y80      -0.074200
     22 C12          2.7670    -1.1380    -0.1010 ca         1 Y80      -0.115800
     23 C17          3.3490    -0.2040     0.7650 ca         1 Y80      -0.048500
     24 C16          4.7070     0.0300     0.7530 ca         1 Y80      -0.179500
     25 C15          5.5390    -0.6630    -0.1340 ca         1 Y80       0.154100
     26 O2           6.8460    -0.3610    -0.0820 os         1 Y80      -0.339100
     27 C18          7.7380    -1.0500    -0.9380 c3         1 Y80       0.147900
     28 C14          4.9810    -1.6110    -0.9880 ca         1 Y80      -0.179500
     29 C13          3.6140    -1.8450    -0.9520 ca         1 Y80      -0.048500
     30 H1          -4.1270     2.2660    -0.2310 hn         1 Y80       0.159000
     31 H2          -6.1490     1.0210     0.2520 ha         1 Y80       0.118000
     32 H3          -7.1560    -1.1610     0.8040 ha         1 Y80       0.117000
     33 H4          -5.7850    -3.2240     0.6990 ha         1 Y80       0.120000
     34 H5          -3.4100    -3.0940     0.0670 ha         1 Y80       0.139000
     35 H6          -2.3850    -0.1690    -2.4630 h1         1 Y80       0.085700
     36 H7          -0.8360     0.3210    -1.8150 h1         1 Y80       0.085700
     37 H8          -0.9660     0.7130     2.0940 ha         1 Y80       0.118500
     38 H9          -0.9350     3.1310     2.5140 ha         1 Y80       0.114500
     39 H10          0.3980     4.6300     1.0660 ha         1 Y80       0.113000
     40 H11          1.6860     3.6820    -0.8240 ha         1 Y80       0.114500
     41 H12          1.6460     1.2650    -1.2590 ha         1 Y80       0.118500
     42 H13          1.1110    -2.4870    -0.3420 ha         1 Y80       0.184000
     43 H14          2.7350     0.3340     1.4740 ha         1 Y80       0.119500
     44 H15          5.1430     0.7480     1.4370 ha         1 Y80       0.124000
     45 H16          7.7410    -2.1250    -0.7420 h1         1 Y80       0.042033
     46 H17          7.5030    -0.8830    -1.9920 h1         1 Y80       0.042033
     47 H18          8.7290    -0.6540    -0.7330 h1         1 Y80       0.042033
     48 H19          5.5900    -2.1790    -1.6780 ha         1 Y80       0.124000
     49 H20          3.1980    -2.5960    -1.6140 ha         1 Y80       0.119500
@<TRIPOS>BOND
     1     1     2 2   
     2     2     3 1   
     3     2    11 1   
     4     3     4 1   
     5     3    30 1   
     6     4     5 ar  
     7     4     9 ar  
     8     5     6 ar  
     9     5    31 1   
    10     6     7 ar  
    11     6    32 1   
    12     7     8 ar  
    13     7    33 1   
    14     8     9 ar  
    15     8    34 1   
    16     9    10 1   
    17    10    11 1   
    18    10    12 1   
    19    11    35 1   
    20    11    36 1   
    21    12    13 2   
    22    12    14 1   
    23    14    15 1   
    24    14    21 2   
    25    15    16 ar  
    26    15    20 ar  
    27    16    17 ar  
    28    16    37 1   
    29    17    18 ar  
    30    17    38 1   
    31    18    19 ar  
    32    18    39 1   
    33    19    20 ar  
    34    19    40 1   
    35    20    41 1   
    36    21    22 1   
    37    21    42 1   
    38    22    23 ar  
    39    22    29 ar  
    40    23    24 ar  
    41    23    43 1   
    42    24    25 ar  
    43    24    44 1   
    44    25    26 1   
    45    25    28 ar  
    46    26    27 1   
    47    27    45 1   
    48    27    46 1   
    49    27    47 1   
    50    28    29 ar  
    51    28    48 1   
    52    29    49 1   
@<TRIPOS>SUBSTRUCTURE
     1 Y80         1 TEMP              0 ****  ****    0 ROOT
