@<TRIPOS>MOLECULE
Y81
   40    43     1     0     0
SMALL
No Charge or Current Charge


@<TRIPOS>ATOM
      1 O1           0.7310    -1.7760    -0.3230 o          1 Y81      -0.552100
      2 C2           0.7410    -0.6110     0.0590 c          1 Y81       0.628700
      3 N            1.9480     0.1410     0.1220 n          1 Y81      -0.225400
      4 C1           1.9090     1.5990    -0.2330 c6         1 Y81       0.017000
      5 C14          3.2590    -0.4740     0.2250 ca         1 Y81      -0.086000
      6 C19          4.3380     0.0640    -0.5090 ca         1 Y81      -0.045000
      7 C18          5.5820    -0.5900    -0.5470 ca         1 Y81      -0.140000
      8 C17          5.7560    -1.8060     0.1310 ca         1 Y81      -0.085000
      9 C16          4.6820    -2.3710     0.8350 ca         1 Y81      -0.120000
     10 C15          3.4360    -1.7200     0.8670 ca         1 Y81      -0.067000
     11 N2           4.1660     1.2870    -1.1820 ns         1 Y81      -0.141000
     12 C            3.0670     2.1110    -1.1100 c          1 Y81       0.547000
     13 O            3.0080     3.1740    -1.7160 o          1 Y81      -0.529000
     14 C3          -0.5300     0.0200     0.5570 ca         1 Y81      -0.206600
     15 C13         -1.7780    -0.3910     0.0450 ca         1 Y81      -0.021000
     16 C6          -2.9670     0.1970     0.5390 cp         1 Y81      -0.084000
     17 C5          -2.8210     1.1760     1.5550 ca         1 Y81       0.362900
     18 N1          -1.6310     1.5560     2.0740 nb         1 Y81      -0.667000
     19 C4          -0.5120     0.9790     1.5830 ca         1 Y81       0.361900
     20 C7          -4.3150    -0.1960     0.0160 cp         1 Y81      -0.042000
     21 C12         -5.3730     0.7460    -0.0620 ca         1 Y81      -0.095000
     22 C11         -6.6380     0.3780    -0.5530 ca         1 Y81      -0.109000
     23 C10         -6.8740    -0.9390    -0.9750 ca         1 Y81      -0.101000
     24 C9          -5.8430    -1.8890    -0.9060 ca         1 Y81      -0.109000
     25 C8          -4.5770    -1.5220    -0.4160 ca         1 Y81      -0.095000
     26 H1           0.9820     1.8400    -0.7710 h1         1 Y81       0.088200
     27 H2           1.9450     2.1950     0.6870 h1         1 Y81       0.088200
     28 H3           6.4120    -0.1570    -1.1010 ha         1 Y81       0.120000
     29 H4           6.7190    -2.3130     0.1030 ha         1 Y81       0.119000
     30 H5           4.8100    -3.3210     1.3500 ha         1 Y81       0.122000
     31 H6           2.6160    -2.1850     1.4090 ha         1 Y81       0.131000
     32 H7           4.9380     1.6060    -1.7520 hn         1 Y81       0.164000
     33 H8          -1.8230    -1.1390    -0.7430 ha         1 Y81       0.138000
     34 H9          -3.6970     1.6590     1.9860 h4         1 Y81       0.026100
     35 H10          0.4190     1.2880     2.0540 h4         1 Y81       0.027100
     36 H11         -5.2120     1.7760     0.2470 ha         1 Y81       0.116500
     37 H12         -7.4350     1.1170    -0.6080 ha         1 Y81       0.116000
     38 H13         -7.8530    -1.2240    -1.3540 ha         1 Y81       0.115000
     39 H14         -6.0240    -2.9120    -1.2290 ha         1 Y81       0.116000
     40 H15         -3.7990    -2.2790    -0.3590 ha         1 Y81       0.116500
@<TRIPOS>BOND
     1     1     2 2   
     2     2     3 1   
     3     2    14 1   
     4     3     4 1   
     5     3     5 1   
     6     4    12 1   
     7     4    26 1   
     8     4    27 1   
     9     5     6 ar  
    10     5    10 ar  
    11     6     7 ar  
    12     6    11 1   
    13     7     8 ar  
    14     7    28 1   
    15     8     9 ar  
    16     8    29 1   
    17     9    10 ar  
    18     9    30 1   
    19    10    31 1   
    20    11    12 1   
    21    11    32 1   
    22    12    13 2   
    23    14    15 ar  
    24    14    19 ar  
    25    15    16 ar  
    26    15    33 1   
    27    16    17 ar  
    28    16    20 1   
    29    17    18 ar  
    30    17    34 1   
    31    18    19 ar  
    32    19    35 1   
    33    20    21 ar  
    34    20    25 ar  
    35    21    22 ar  
    36    21    36 1   
    37    22    23 ar  
    38    22    37 1   
    39    23    24 ar  
    40    23    38 1   
    41    24    25 ar  
    42    24    39 1   
    43    25    40 1   
@<TRIPOS>SUBSTRUCTURE
     1 Y81         1 TEMP              0 ****  ****    0 ROOT
