@<TRIPOS>MOLECULE
Y81
   40    43     1     0     0
SMALL
bcc


@<TRIPOS>ATOM
      1 O1           0.8190    -1.9410     0.3800 o          1 Y81      -0.552100
      2 C2           0.7800    -0.7410     0.5600 c          1 Y81       0.695700
      3 N            1.8950     0.0510     0.4920 n          1 Y81      -0.385000
      4 C1           1.8610     1.4740     0.2000 c6         1 Y81       0.017000
      5 C14          3.1650    -0.5410     0.3130 ca         1 Y81       0.006600
      6 C19          3.9390    -0.0680    -0.7440 ca         1 Y81       0.047600
      7 C18          5.2040    -0.5970    -0.9720 ca         1 Y81      -0.158000
      8 C17          5.6870    -1.6000    -0.1480 ca         1 Y81      -0.103000
      9 C16          4.9230    -2.0620     0.9170 ca         1 Y81      -0.138000
     10 C15          3.6660    -1.5270     1.1520 ca         1 Y81      -0.085000
     11 N2           3.4180     0.9330    -1.5610 ns         1 Y81      -0.467100
     12 C            2.4190     1.7640    -1.1820 c          1 Y81       0.689500
     13 O            2.0190     2.6820    -1.8680 o          1 Y81      -0.604500
     14 C3          -0.5050    -0.0810     0.9260 ca         1 Y81      -0.271900
     15 C13         -1.6610    -0.4010     0.2290 ca         1 Y81      -0.039000
     16 C6          -2.8740     0.1500     0.6240 cp         1 Y81      -0.149300
     17 C5          -2.8560     0.9810     1.7470 ca         1 Y81       0.428200
     18 N1          -1.7630     1.2720     2.4350 nb         1 Y81      -0.667000
     19 C4          -0.6100     0.7600     2.0290 ca         1 Y81       0.427200
     20 C7          -4.1290    -0.1310    -0.0950 cp         1 Y81      -0.042000
     21 C12         -5.0810     0.8720    -0.2810 ca         1 Y81      -0.113000
     22 C11         -6.2620     0.6070    -0.9590 ca         1 Y81      -0.127000
     23 C10         -6.5100    -0.6640    -1.4610 ca         1 Y81      -0.119000
     24 C9          -5.5690    -1.6690    -1.2800 ca         1 Y81      -0.127000
     25 C8          -4.3880    -1.4050    -0.6020 ca         1 Y81      -0.113000
     26 H1           0.8460     1.8560     0.2380 h1         1 Y81       0.088200
     27 H2           2.4510     2.0270     0.9370 h1         1 Y81       0.088200
     28 H3           5.8040    -0.2220    -1.7920 ha         1 Y81       0.138000
     29 H4           6.6700    -2.0130    -0.3330 ha         1 Y81       0.137000
     30 H5           5.3080    -2.8330     1.5700 ha         1 Y81       0.140000
     31 H6           3.0760    -1.8750     1.9890 ha         1 Y81       0.149000
     32 H7           3.8790     1.1260    -2.4400 hn         1 Y81       0.330500
     33 H8          -1.6100    -1.0520    -0.6350 ha         1 Y81       0.156000
     34 H9          -3.7810     1.4130     2.1140 h4         1 Y81       0.026100
     35 H10          0.2660     1.0140     2.6170 h4         1 Y81       0.027100
     36 H11         -4.8910     1.8730     0.0850 ha         1 Y81       0.134500
     37 H12         -6.9850     1.3990    -1.1030 ha         1 Y81       0.134000
     38 H13         -7.4310    -0.8700    -1.9910 ha         1 Y81       0.133000
     39 H14         -5.7560    -2.6640    -1.6630 ha         1 Y81       0.134000
     40 H15         -3.6720    -2.2040    -0.4510 ha         1 Y81       0.134500
@<TRIPOS>BOND
     1     1     2 2   
     2     2     3 1   
     3     2    14 1   
     4     3     4 1   
     5     3     5 1   
     6     4    12 1   
     7     4    26 1   
     8     4    27 1   
     9     5     6 ar  
    10     5    10 ar  
    11     6     7 ar  
    12     6    11 1   
    13     7     8 ar  
    14     7    28 1   
    15     8     9 ar  
    16     8    29 1   
    17     9    10 ar  
    18     9    30 1   
    19    10    31 1   
    20    11    12 1   
    21    11    32 1   
    22    12    13 2   
    23    14    15 ar  
    24    14    19 ar  
    25    15    16 ar  
    26    15    33 1   
    27    16    17 ar  
    28    16    20 1   
    29    17    18 ar  
    30    17    34 1   
    31    18    19 ar  
    32    19    35 1   
    33    20    21 ar  
    34    20    25 ar  
    35    21    22 ar  
    36    21    36 1   
    37    22    23 ar  
    38    22    37 1   
    39    23    24 ar  
    40    23    38 1   
    41    24    25 ar  
    42    24    39 1   
    43    25    40 1   
@<TRIPOS>SUBSTRUCTURE
     1 Y81         1 TEMP              0 ****  ****    0 ROOT
