@<TRIPOS>MOLECULE
Y82
   42    46     1     0     0
SMALL
abcg2


@<TRIPOS>ATOM
      1 C8         110.3030   129.8900   103.1570 ca         1 Y82      -0.205900
      2 C5         109.4850   132.2080   103.2740 ca         1 Y82      -0.114000
      3 C6         109.2770   130.8520   103.0090 ca         1 Y82      -0.036200
      4 N1         108.1750   130.1610   102.6090 na         1 Y82      -0.076400
      5 C2         111.6000   130.2850   103.5410 ca         1 Y82      -0.071600
      6 N3         112.6600   128.0380   103.6250 n          1 Y82      -0.407800
      7 C4         110.7530   132.5730   103.6870 ca         1 Y82      -0.083000
      8 N2         108.4150   128.8260   102.5250 nc         1 Y82      -0.506100
      9 N4         114.8900   126.1380   101.4180 n3         1 Y82      -0.677600
     10 C7         109.6850   128.6470   102.8390 cd         1 Y82       0.353900
     11 C1         112.8040   129.3880   103.5370 c          1 Y82       0.569600
     12 C10        111.4160   127.3980   104.0630 c3         1 Y82       0.110000
     13 C11        113.9170   127.2680   103.4420 c6         1 Y82       0.087700
     14 C12        114.4800   127.4210   101.9930 c6         1 Y82       0.137800
     15 C13        115.8890   125.5110   102.2950 c6         1 Y82       0.144300
     16 C14        115.3140   125.2700   103.7200 c6         1 Y82      -0.107400
     17 C15        113.8560   125.7630   103.7480 c6         1 Y82      -0.075700
     18 C16        113.0860   124.9640   102.6830 c6         1 Y82      -0.107400
     19 C17        113.7190   125.2590   101.2980 c6         1 Y82       0.144300
     20 C3         111.7940   131.6340   103.8050 ca         1 Y82      -0.090000
     21 C9         110.3410   127.3170   102.9720 c3         1 Y82      -0.105700
     22 O1         113.9230   129.8980   103.3970 o          1 Y82      -0.573000
     23 H1         108.6910   132.9360   103.1640 ha         1 Y82       0.122000
     24 H2         107.2480   130.5140   102.4390 hn         1 Y82       0.379000
     25 H3         110.9590   133.6110   103.9110 ha         1 Y82       0.119000
     26 H5         111.0190   127.9400   104.9220 h1         1 Y82       0.055700
     27 H6         111.6600   126.4050   104.4140 h1         1 Y82       0.055700
     28 H7         114.6350   127.7050   104.1370 h1         1 Y82       0.068700
     29 H8         115.3390   128.0900   101.9950 h1         1 Y82       0.071700
     30 H9         113.7130   127.8550   101.3500 h1         1 Y82       0.071700
     31 H10        116.2000   124.5710   101.8360 h1         1 Y82       0.055950
     32 H11        116.7610   126.1660   102.3350 h1         1 Y82       0.055950
     33 H12        115.3340   124.2080   103.9730 hc         1 Y82       0.046450
     34 H13        115.9040   125.7980   104.4720 hc         1 Y82       0.046450
     35 H14        113.4440   125.5870   104.7410 hc         1 Y82       0.056700
     36 H15        112.0250   125.2030   102.6780 hc         1 Y82       0.046450
     37 H16        113.1660   123.9020   102.9270 hc         1 Y82       0.046450
     38 H17        112.9990   125.7550   100.6440 h1         1 Y82       0.055950
     39 H18        114.0340   124.3370   100.8080 h1         1 Y82       0.055950
     40 H19        112.7820   131.9690   104.0870 ha         1 Y82       0.139000
     41 H20        109.5980   126.5620   103.2380 hc         1 Y82       0.070200
     42 H21        110.8030   127.0060   102.0310 hc         1 Y82       0.070200
@<TRIPOS>BOND
     1     1     3 ar  
     2     1     5 ar  
     3     1    10 1   
     4     2     3 ar  
     5     2     7 ar  
     6     2    23 1   
     7     3     4 1   
     8     4     8 1   
     9     4    24 1   
    10     5    11 1   
    11     5    20 ar  
    12     6    11 1   
    13     6    12 1   
    14     6    13 1   
    15     7    20 ar  
    16     7    25 1   
    17     8    10 2   
    18     9    14 1   
    19     9    15 1   
    20     9    19 1   
    21    10    21 1   
    22    11    22 2   
    23    12    21 1   
    24    12    26 1   
    25    12    27 1   
    26    13    14 1   
    27    13    17 1   
    28    13    28 1   
    29    14    29 1   
    30    14    30 1   
    31    15    16 1   
    32    15    31 1   
    33    15    32 1   
    34    16    17 1   
    35    16    33 1   
    36    16    34 1   
    37    17    18 1   
    38    17    35 1   
    39    18    19 1   
    40    18    36 1   
    41    18    37 1   
    42    19    38 1   
    43    19    39 1   
    44    20    40 1   
    45    21    41 1   
    46    21    42 1   
@<TRIPOS>SUBSTRUCTURE
     1 Y82         1 TEMP              0 ****  ****    0 ROOT
