@<TRIPOS>MOLECULE
Y82
   42    46     1     0     0
SMALL
No Charge or Current Charge


@<TRIPOS>ATOM
      1 C8         110.2950   129.9970   103.1690 ca         1 Y82      -0.205900
      2 C5         109.4070   132.2410   103.2930 ca         1 Y82      -0.114000
      3 C6         109.2690   130.8790   103.0110 ca         1 Y82      -0.036200
      4 N1         108.1640   130.1970   102.5410 na         1 Y82      -0.076400
      5 C2         111.5860   130.3940   103.5990 ca         1 Y82      -0.071600
      6 N3         112.6780   128.0680   103.5990 n          1 Y82      -0.407800
      7 C4         110.6630   132.6880   103.7430 ca         1 Y82      -0.083000
      8 N2         108.4550   128.8300   102.4100 nc         1 Y82      -0.506100
      9 N4         114.9010   126.0430   101.3580 n3         1 Y82      -0.677600
     10 C7         109.7380   128.7190   102.7870 cd         1 Y82       0.353900
     11 C1         112.8110   129.4810   103.6830 c          1 Y82       0.569600
     12 C10        111.4210   127.4430   104.0750 c3         1 Y82       0.110000
     13 C11        113.9220   127.2370   103.3920 c6         1 Y82       0.087700
     14 C12        114.4310   127.3580   101.9080 c6         1 Y82       0.137800
     15 C13        115.9510   125.4670   102.2550 c6         1 Y82       0.144300
     16 C14        115.3750   125.2140   103.6860 c6         1 Y82      -0.107400
     17 C15        113.8990   125.7060   103.7580 c6         1 Y82      -0.075700
     18 C16        113.1170   124.8790   102.6890 c6         1 Y82      -0.107400
     19 C17        113.7400   125.1060   101.2770 c6         1 Y82       0.144300
     20 C3         111.7380   131.7780   103.8850 ca         1 Y82      -0.090000
     21 C9         110.3610   127.3760   102.9730 c3         1 Y82      -0.105700
     22 O1         113.9290   129.9820   103.7360 o          1 Y82      -0.573000
     23 H1         108.5770   132.9320   103.1650 ha         1 Y82       0.122000
     24 H2         107.2490   130.5890   102.3210 hn         1 Y82       0.379000
     25 H3         110.8130   133.7410   103.9700 ha         1 Y82       0.119000
     26 H5         111.0310   128.0150   104.9280 h1         1 Y82       0.055700
     27 H6         111.5950   126.4330   104.4550 h1         1 Y82       0.055700
     28 H7         114.7010   127.6720   104.0350 h1         1 Y82       0.068700
     29 H8         115.2390   128.1040   101.8730 h1         1 Y82       0.071700
     30 H9         113.6200   127.7540   101.2800 h1         1 Y82       0.071700
     31 H10        116.3330   124.5200   101.8440 h1         1 Y82       0.055950
     32 H11        116.8110   126.1510   102.3250 h1         1 Y82       0.055950
     33 H12        115.4320   124.1430   103.9270 hc         1 Y82       0.046450
     34 H13        115.9920   125.7300   104.4350 hc         1 Y82       0.046450
     35 H14        113.5110   125.5360   104.7710 hc         1 Y82       0.056700
     36 H15        112.0520   125.1330   102.6710 hc         1 Y82       0.046450
     37 H16        113.1600   123.8100   102.9400 hc         1 Y82       0.046450
     38 H17        112.9700   125.5070   100.6010 h1         1 Y82       0.055950
     39 H18        114.0550   124.1380   100.8580 h1         1 Y82       0.055950
     40 H19        112.7020   132.1620   104.2140 ha         1 Y82       0.139000
     41 H20        109.5960   126.6470   103.2630 hc         1 Y82       0.070200
     42 H21        110.8050   127.0280   102.0340 hc         1 Y82       0.070200
@<TRIPOS>BOND
     1     1     3 ar  
     2     1     5 ar  
     3     1    10 1   
     4     2     3 ar  
     5     2     7 ar  
     6     2    23 1   
     7     3     4 1   
     8     4     8 1   
     9     4    24 1   
    10     5    11 1   
    11     5    20 ar  
    12     6    11 1   
    13     6    12 1   
    14     6    13 1   
    15     7    20 ar  
    16     7    25 1   
    17     8    10 2   
    18     9    14 1   
    19     9    15 1   
    20     9    19 1   
    21    10    21 1   
    22    11    22 2   
    23    12    21 1   
    24    12    26 1   
    25    12    27 1   
    26    13    14 1   
    27    13    17 1   
    28    13    28 1   
    29    14    29 1   
    30    14    30 1   
    31    15    16 1   
    32    15    31 1   
    33    15    32 1   
    34    16    17 1   
    35    16    33 1   
    36    16    34 1   
    37    17    18 1   
    38    17    35 1   
    39    18    19 1   
    40    18    36 1   
    41    18    37 1   
    42    19    38 1   
    43    19    39 1   
    44    20    40 1   
    45    21    41 1   
    46    21    42 1   
@<TRIPOS>SUBSTRUCTURE
     1 Y82         1 TEMP              0 ****  ****    0 ROOT
