@<TRIPOS>MOLECULE
Y83
   77    80     1     0     0
SMALL
abcg2


@<TRIPOS>ATOM
      1 C01          3.8620     2.7890    -2.7360 c3         1 Y83      -0.108767
      2 C02          3.0220     1.5730    -3.1110 c3         1 Y83       0.226000
      3 C03          1.5940     1.9590    -3.4770 c3         1 Y83      -0.108767
      4 C04          3.6720     0.8450    -4.2820 c3         1 Y83      -0.108767
      5 C06          2.5600     0.8100    -0.8350 c          1 Y83       0.659100
      6 C09          2.2600    -0.3790     1.3120 c3         1 Y83       0.160700
      7 C10          0.7800    -0.0560     1.5030 c3         1 Y83       0.030600
      8 C12         -1.8610    -0.5480     0.9060 c3         1 Y83       0.040600
      9 C13         -2.9030    -0.9370    -0.1380 c3         1 Y83       0.152500
     10 C15         -3.6020    -2.9320    -1.3850 ca         1 Y83       0.306000
     11 C16         -3.7520    -4.3250    -1.3790 ca         1 Y83      -0.169500
     12 C17         -4.5090    -4.9610    -2.3460 ca         1 Y83      -0.072500
     13 C18         -5.1390    -4.2320    -3.3490 ca         1 Y83      -0.152000
     14 C19         -4.9940    -2.8530    -3.3610 ca         1 Y83      -0.072500
     15 C20         -4.2390    -2.2010    -2.3930 ca         1 Y83      -0.169500
     16 C21         -4.2880    -0.5490     0.4040 c          1 Y83       0.565100
     17 C24         -5.8850     1.3120     0.6080 c3         1 Y83       0.150300
     18 C25         -5.6180     2.1670     1.8170 ca         1 Y83      -0.170300
     19 C26         -5.7230     3.5500     1.7510 ca         1 Y83       0.342900
     20 C28         -5.1150     3.8210     3.9240 ca         1 Y83       0.340900
     21 C29         -4.9810     2.4510     4.1070 ca         1 Y83      -0.168000
     22 C30         -5.2380     1.6120     3.0360 ca         1 Y83      -0.056000
     23 C31          3.1270     0.4540     2.2690 c3         1 Y83      -0.019200
     24 C32          4.5740     0.0890     2.2020 cc         1 Y83      -0.139400
     25 C33          5.1840    -0.9360     2.8700 cd         1 Y83      -0.164100
     26 C35          6.7930    -0.0090     1.6410 ca         1 Y83      -0.048200
     27 C36          5.5940     0.7010     1.4030 ca         1 Y83      -0.090800
     28 C37          5.6180     1.7890     0.5210 ca         1 Y83      -0.057000
     29 C38          6.8080     2.1310    -0.0910 ca         1 Y83      -0.145000
     30 C39          7.9860     1.4070     0.1560 ca         1 Y83      -0.090000
     31 C40          7.9960     0.3310     1.0230 ca         1 Y83      -0.132000
     32 N08          2.6840    -0.2930    -0.0710 ns         1 Y83      -0.496900
     33 N14         -2.8020    -2.3380    -0.4260 nu         1 Y83      -0.916200
     34 N23         -4.6820     0.6940     0.0920 ns         1 Y83      -0.500900
     35 N27         -5.4810     4.3660     2.7720 nb         1 Y83      -0.665000
     36 N34          6.5070    -0.9990     2.5340 na         1 Y83      -0.223700
     37 O05          3.0370     0.5750    -2.0580 os         1 Y83      -0.474100
     38 O07          2.0800     1.8600    -0.4550 o          1 Y83      -0.566000
     39 O22         -4.9350    -1.3230     1.0900 o          1 Y83      -0.596100
     40 S11         -0.2090    -0.9870     0.2990 ss         1 Y83      -0.382000
     41 H1           3.4140     3.3780    -1.9400 hc         1 Y83       0.048478
     42 H2           4.8640     2.4880    -2.4250 hc         1 Y83       0.048478
     43 H3           3.9660     3.4340    -3.6100 hc         1 Y83       0.048478
     44 H4           1.6130     2.5990    -4.3610 hc         1 Y83       0.048478
     45 H5           1.0030     1.0760    -3.7240 hc         1 Y83       0.048478
     46 H6           1.0920     2.5040    -2.6820 hc         1 Y83       0.048478
     47 H7           4.6900     0.5350    -4.0420 hc         1 Y83       0.048478
     48 H8           3.1010    -0.0400    -4.5670 hc         1 Y83       0.048478
     49 H9           3.7200     1.5050    -5.1480 hc         1 Y83       0.048478
     50 H10          2.3990    -1.4290     1.5780 h1         1 Y83       0.055700
     51 H11          0.4890    -0.3510     2.5130 h1         1 Y83       0.072200
     52 H12          0.5860     1.0100     1.3920 h1         1 Y83       0.072200
     53 H13         -1.9030     0.5280     1.0800 h1         1 Y83       0.068700
     54 H14         -2.0640    -1.0490     1.8570 h1         1 Y83       0.068700
     55 H15         -2.6860    -0.3650    -1.0460 h1         1 Y83       0.083700
     56 H16         -3.2660    -4.9090    -0.6050 ha         1 Y83       0.108500
     57 H17         -4.6100    -6.0390    -2.3130 ha         1 Y83       0.108000
     58 H18         -5.7300    -4.7310    -4.1060 ha         1 Y83       0.112000
     59 H19         -5.4760    -2.2640    -4.1310 ha         1 Y83       0.108000
     60 H20         -4.1530    -1.1240    -2.4430 ha         1 Y83       0.108500
     61 H21         -6.6010     0.5270     0.8450 h1         1 Y83       0.068200
     62 H22         -6.3260     1.9160    -0.1860 h1         1 Y83       0.068200
     63 H23         -6.0220     4.0220     0.8190 h4         1 Y83       0.015100
     64 H24         -4.9200     4.5030     4.7440 h4         1 Y83       0.020100
     65 H25         -4.6850     2.0560     5.0690 ha         1 Y83       0.125000
     66 H26         -5.1510     0.5390     3.1480 ha         1 Y83       0.134000
     67 H27          2.9880     1.5160     2.0610 hc         1 Y83       0.059700
     68 H28          2.7510     0.2870     3.2820 hc         1 Y83       0.059700
     69 H29          4.7650    -1.6370     3.5750 h4         1 Y83       0.209000
     70 H30          4.7180     2.3570     0.3210 ha         1 Y83       0.126000
     71 H31          6.8370     2.9710    -0.7730 ha         1 Y83       0.110000
     72 H32          8.9030     1.6970    -0.3410 ha         1 Y83       0.109000
     73 H33          8.9050    -0.2260     1.2150 ha         1 Y83       0.112000
     74 H34          3.1450    -1.0950    -0.4660 hn         1 Y83       0.333500
     75 H35         -2.6600    -2.9110     0.3930 hn         1 Y83       0.474000
     76 H36         -4.0690     1.2710    -0.4620 hn         1 Y83       0.316500
     77 H37          7.1650    -1.6630     2.9060 hn         1 Y83       0.349000
@<TRIPOS>BOND
     1     1     2 1   
     2     1    41 1   
     3     1    42 1   
     4     1    43 1   
     5     2     3 1   
     6     2     4 1   
     7     2    37 1   
     8     3    44 1   
     9     3    45 1   
    10     3    46 1   
    11     4    47 1   
    12     4    48 1   
    13     4    49 1   
    14     5    32 1   
    15     5    37 1   
    16     5    38 2   
    17     6     7 1   
    18     6    23 1   
    19     6    32 1   
    20     6    50 1   
    21     7    40 1   
    22     7    51 1   
    23     7    52 1   
    24     8     9 1   
    25     8    40 1   
    26     8    53 1   
    27     8    54 1   
    28     9    16 1   
    29     9    33 1   
    30     9    55 1   
    31    10    11 ar  
    32    10    15 ar  
    33    10    33 1   
    34    11    12 ar  
    35    11    56 1   
    36    12    13 ar  
    37    12    57 1   
    38    13    14 ar  
    39    13    58 1   
    40    14    15 ar  
    41    14    59 1   
    42    15    60 1   
    43    16    34 1   
    44    16    39 2   
    45    17    18 1   
    46    17    34 1   
    47    17    61 1   
    48    17    62 1   
    49    18    19 ar  
    50    18    22 ar  
    51    19    35 ar  
    52    19    63 1   
    53    20    21 ar  
    54    20    35 ar  
    55    20    64 1   
    56    21    22 ar  
    57    21    65 1   
    58    22    66 1   
    59    23    24 1   
    60    23    67 1   
    61    23    68 1   
    62    24    25 2   
    63    24    27 1   
    64    25    36 1   
    65    25    69 1   
    66    26    27 ar  
    67    26    31 ar  
    68    26    36 1   
    69    27    28 ar  
    70    28    29 ar  
    71    28    70 1   
    72    29    30 ar  
    73    29    71 1   
    74    30    31 ar  
    75    30    72 1   
    76    31    73 1   
    77    32    74 1   
    78    33    75 1   
    79    34    76 1   
    80    36    77 1   
@<TRIPOS>SUBSTRUCTURE
     1 Y83         1 TEMP              0 ****  ****    0 ROOT
