@<TRIPOS>MOLECULE
Y83
   77    80     1     0     0
SMALL
No Charge or Current Charge


@<TRIPOS>ATOM
      1 C01          3.9840     3.6140    -1.5910 c3         1 Y83      -0.108767
      2 C02          2.9710     2.7040    -2.3320 c3         1 Y83       0.226000
      3 C03          1.5150     3.2370    -2.2700 c3         1 Y83      -0.108767
      4 C04          3.4030     2.5280    -3.8050 c3         1 Y83      -0.108767
      5 C06          2.6970     1.0920    -0.4830 c          1 Y83       0.659100
      6 C09          2.6180    -0.9840     0.9590 c3         1 Y83       0.160700
      7 C10          1.1480    -0.8620     1.4370 c3         1 Y83       0.030600
      8 C12         -1.6470    -0.9550     0.9430 c3         1 Y83       0.040600
      9 C13         -2.8750    -1.2990     0.0630 c3         1 Y83       0.152500
     10 C15         -3.9990    -3.4510    -0.8340 ca         1 Y83       0.306000
     11 C16         -4.2980    -4.7740    -0.4700 ca         1 Y83      -0.169500
     12 C17         -5.3250    -5.4770    -1.1250 ca         1 Y83      -0.072500
     13 C18         -6.0540    -4.8560    -2.1520 ca         1 Y83      -0.152000
     14 C19         -5.7540    -3.5350    -2.5270 ca         1 Y83      -0.072500
     15 C20         -4.7270    -2.8360    -1.8700 ca         1 Y83      -0.169500
     16 C21         -4.1720    -0.6860     0.7020 c          1 Y83       0.565100
     17 C24         -6.0780     0.9150     0.2990 c3         1 Y83       0.150300
     18 C25         -5.7650     2.3190     0.7860 ca         1 Y83      -0.170300
     19 C26         -6.0010     3.4340    -0.0420 ca         1 Y83       0.342900
     20 C28         -5.2330     4.9060     1.5740 ca         1 Y83       0.340900
     21 C29         -4.9660     3.8550     2.4660 ca         1 Y83      -0.168000
     22 C30         -5.2360     2.5350     2.0720 ca         1 Y83      -0.056000
     23 C31          3.6260    -0.6100     2.0760 c3         1 Y83      -0.019200
     24 C32          5.0670    -0.8290     1.6820 cc         1 Y83      -0.139400
     25 C33          5.7600    -2.0360     1.6850 cd         1 Y83      -0.164100
     26 C35          7.1740    -0.4800     0.9290 ca         1 Y83      -0.048200
     27 C36          5.9950     0.1560     1.1990 ca         1 Y83      -0.090800
     28 C37          5.8430     1.5390     1.0110 ca         1 Y83      -0.057000
     29 C38          6.9480     2.2660     0.5200 ca         1 Y83      -0.145000
     30 C39          8.1660     1.6070     0.2330 ca         1 Y83      -0.090000
     31 C40          8.2880     0.2160     0.4400 ca         1 Y83      -0.132000
     32 N08          2.8670    -0.2480    -0.2880 ns         1 Y83      -0.496900
     33 N14         -2.9760    -2.7780    -0.1660 nu         1 Y83      -0.916200
     34 N23         -4.8590     0.2090    -0.0970 ns         1 Y83      -0.500900
     35 N27         -5.7430     4.7070     0.3360 nb         1 Y83      -0.665000
     36 N34          7.0790    -1.8290     1.2130 na         1 Y83      -0.223700
     37 O05          3.0250     1.3670    -1.7820 os         1 Y83      -0.474100
     38 O07          2.3180     1.8840     0.3650 o          1 Y83      -0.566000
     39 O22         -4.5560    -0.9630     1.8330 o          1 Y83      -0.596100
     40 S11         -0.0460    -1.4530     0.1470 ss         1 Y83      -0.382000
     41 H1           3.6630     3.8410    -0.5700 hc         1 Y83       0.048478
     42 H2           4.9700     3.1370    -1.5470 hc         1 Y83       0.048478
     43 H3           4.0940     4.5690    -2.1180 hc         1 Y83       0.048478
     44 H4           1.4100     4.1340    -2.8920 hc         1 Y83       0.048478
     45 H5           0.8090     2.4840    -2.6390 hc         1 Y83       0.048478
     46 H6           1.2240     3.5160    -1.2510 hc         1 Y83       0.048478
     47 H7           4.4130     2.1070    -3.8670 hc         1 Y83       0.048478
     48 H8           2.7180     1.8540    -4.3340 hc         1 Y83       0.048478
     49 H9           3.4030     3.4910    -4.3290 hc         1 Y83       0.048478
     50 H10          2.7850    -2.0450     0.7290 h1         1 Y83       0.055700
     51 H11          1.0090    -1.4640     2.3440 h1         1 Y83       0.072200
     52 H12          0.9210     0.1820     1.6880 h1         1 Y83       0.072200
     53 H13         -1.6240     0.1280     1.1190 h1         1 Y83       0.068700
     54 H14         -1.7370    -1.4540     1.9170 h1         1 Y83       0.068700
     55 H15         -2.7310    -0.7970    -0.9030 h1         1 Y83       0.083700
     56 H16         -3.7390    -5.2590     0.3250 ha         1 Y83       0.108500
     57 H17         -5.5550    -6.5010    -0.8360 ha         1 Y83       0.108000
     58 H18         -6.8480    -5.3980    -2.6610 ha         1 Y83       0.112000
     59 H19         -6.3140    -3.0560    -3.3270 ha         1 Y83       0.108000
     60 H20         -4.4960    -1.8210    -2.1770 ha         1 Y83       0.108500
     61 H21         -6.5970     0.3540     1.0880 h1         1 Y83       0.068200
     62 H22         -6.7530     0.9610    -0.5670 h1         1 Y83       0.068200
     63 H23         -6.4110     3.3050    -1.0440 h4         1 Y83       0.015100
     64 H24         -5.0330     5.9390     1.8570 h4         1 Y83       0.020100
     65 H25         -4.5560     4.0680     3.4500 ha         1 Y83       0.125000
     66 H26         -5.0380     1.7020     2.7450 ha         1 Y83       0.134000
     67 H27          3.4730     0.4330     2.3760 hc         1 Y83       0.059700
     68 H28          3.4060    -1.2130     2.9650 hc         1 Y83       0.059700
     69 H29          5.4090    -3.0220     1.9790 h4         1 Y83       0.209000
     70 H30          4.9060     2.0390     1.2400 ha         1 Y83       0.126000
     71 H31          6.8620     3.3390     0.3630 ha         1 Y83       0.110000
     72 H32          9.0140     2.1750    -0.1450 ha         1 Y83       0.109000
     73 H33          9.2220    -0.2980     0.2280 ha         1 Y83       0.112000
     74 H34          3.1920    -0.7610    -1.0950 hn         1 Y83       0.333500
     75 H35         -2.4070    -3.3630     0.4450 hn         1 Y83       0.474000
     76 H36         -4.4810     0.3900    -1.0200 hn         1 Y83       0.316500
     77 H37          7.8080    -2.5290     1.1040 hn         1 Y83       0.349000
@<TRIPOS>BOND
     1     1     2 1   
     2     1    41 1   
     3     1    42 1   
     4     1    43 1   
     5     2     3 1   
     6     2     4 1   
     7     2    37 1   
     8     3    44 1   
     9     3    45 1   
    10     3    46 1   
    11     4    47 1   
    12     4    48 1   
    13     4    49 1   
    14     5    32 1   
    15     5    37 1   
    16     5    38 2   
    17     6     7 1   
    18     6    23 1   
    19     6    32 1   
    20     6    50 1   
    21     7    40 1   
    22     7    51 1   
    23     7    52 1   
    24     8     9 1   
    25     8    40 1   
    26     8    53 1   
    27     8    54 1   
    28     9    16 1   
    29     9    33 1   
    30     9    55 1   
    31    10    11 ar  
    32    10    15 ar  
    33    10    33 1   
    34    11    12 ar  
    35    11    56 1   
    36    12    13 ar  
    37    12    57 1   
    38    13    14 ar  
    39    13    58 1   
    40    14    15 ar  
    41    14    59 1   
    42    15    60 1   
    43    16    34 1   
    44    16    39 2   
    45    17    18 1   
    46    17    34 1   
    47    17    61 1   
    48    17    62 1   
    49    18    19 ar  
    50    18    22 ar  
    51    19    35 ar  
    52    19    63 1   
    53    20    21 ar  
    54    20    35 ar  
    55    20    64 1   
    56    21    22 ar  
    57    21    65 1   
    58    22    66 1   
    59    23    24 1   
    60    23    67 1   
    61    23    68 1   
    62    24    25 2   
    63    24    27 1   
    64    25    36 1   
    65    25    69 1   
    66    26    27 ar  
    67    26    31 ar  
    68    26    36 1   
    69    27    28 ar  
    70    28    29 ar  
    71    28    70 1   
    72    29    30 ar  
    73    29    71 1   
    74    30    31 ar  
    75    30    72 1   
    76    31    73 1   
    77    32    74 1   
    78    33    75 1   
    79    34    76 1   
    80    36    77 1   
@<TRIPOS>SUBSTRUCTURE
     1 Y83         1 TEMP              0 ****  ****    0 ROOT
