@<TRIPOS>MOLECULE
Y84
   18    19     1     0     0
SMALL
No Charge or Current Charge


@<TRIPOS>ATOM
      1 C10         39.8940   -20.2800    13.9040 ca         1 Y84      -0.083000
      2 C02         42.0810   -20.0720    12.7960 ca         1 Y84       0.182000
      3 C03         42.8500   -19.6610    11.6950 ca         1 Y84      -0.156000
      4 C04         42.2310   -19.0460    10.5940 ca         1 Y84      -0.085000
      5 C05         40.8410   -18.8430    10.5950 ca         1 Y84      -0.114000
      6 C06         40.0640   -19.2530    11.6960 ca         1 Y84      -0.017000
      7 C07         38.6710   -19.0470    11.6910 ca         1 Y84      -0.104000
      8 C08         37.8930   -19.4550    12.7870 ca         1 Y84      -0.097000
      9 C09         38.5040   -20.0710    13.8920 ca         1 Y84      -0.111000
     10 C11         40.6830   -19.8730    12.8070 ca         1 Y84      -0.073000
     11 F01         42.7020   -20.6620    13.8430 f          1 Y84      -0.179000
     12 H1          40.3510   -20.7580    14.7680 ha         1 Y84       0.125000
     13 H2          43.9260   -19.8190    11.6980 ha         1 Y84       0.131000
     14 H3          42.8270   -18.7270     9.7410 ha         1 Y84       0.117000
     15 H4          40.3680   -18.3660     9.7390 ha         1 Y84       0.118000
     16 H5          38.1910   -18.5710    10.8390 ha         1 Y84       0.115000
     17 H6          36.8170   -19.2940    12.7800 ha         1 Y84       0.115000
     18 H7          37.9010   -20.3860    14.7410 ha         1 Y84       0.115000
@<TRIPOS>BOND
     1     1     9 ar  
     2     1    10 ar  
     3     1    12 1   
     4     2     3 ar  
     5     2    10 ar  
     6     2    11 1   
     7     3     4 ar  
     8     3    13 1   
     9     4     5 ar  
    10     4    14 1   
    11     5     6 ar  
    12     5    15 1   
    13     6     7 ar  
    14     6    10 ar  
    15     7     8 ar  
    16     7    16 1   
    17     8     9 ar  
    18     8    17 1   
    19     9    18 1   
@<TRIPOS>SUBSTRUCTURE
     1 Y84         1 TEMP              0 ****  ****    0 ROOT
