@<TRIPOS>MOLECULE
Y84
   18    19     1     0     0
SMALL
bcc


@<TRIPOS>ATOM
      1 C10         39.8830   -20.2770    13.9080 ca         1 Y84      -0.101000
      2 C02         42.0760   -20.0600    12.7590 ca         1 Y84       0.146900
      3 C03         42.8400   -19.6620    11.7060 ca         1 Y84      -0.174000
      4 C04         42.2130   -19.0430    10.6050 ca         1 Y84      -0.103000
      5 C05         40.8610   -18.8440    10.5930 ca         1 Y84      -0.132000
      6 C06         40.0640   -19.2520    11.6890 ca         1 Y84      -0.017000
      7 C07         38.6630   -19.0570    11.7060 ca         1 Y84      -0.122000
      8 C08         37.9140   -19.4550    12.7790 ca         1 Y84      -0.115000
      9 C09         38.5300   -20.0690    13.8890 ca         1 Y84      -0.129000
     10 C11         40.6770   -19.8750    12.8090 ca         1 Y84      -0.073000
     11 F01         42.6630   -20.6570    13.8080 f          1 Y84      -0.143900
     12 H1          40.3420   -20.7480    14.7660 ha         1 Y84       0.143000
     13 H2          43.9100   -19.8220    11.7150 ha         1 Y84       0.149000
     14 H3          42.8190   -18.7280     9.7660 ha         1 Y84       0.135000
     15 H4          40.3820   -18.3720     9.7440 ha         1 Y84       0.136000
     16 H5          38.1920   -18.5850    10.8520 ha         1 Y84       0.133000
     17 H6          36.8430   -19.2990    12.7800 ha         1 Y84       0.133000
     18 H7          37.9260   -20.3770    14.7320 ha         1 Y84       0.133000
@<TRIPOS>BOND
     1     1     9 ar  
     2     1    10 ar  
     3     1    12 1   
     4     2     3 ar  
     5     2    10 ar  
     6     2    11 1   
     7     3     4 ar  
     8     3    13 1   
     9     4     5 ar  
    10     4    14 1   
    11     5     6 ar  
    12     5    15 1   
    13     6     7 ar  
    14     6    10 ar  
    15     7     8 ar  
    16     7    16 1   
    17     8     9 ar  
    18     8    17 1   
    19     9    18 1   
@<TRIPOS>SUBSTRUCTURE
     1 Y84         1 TEMP              0 ****  ****    0 ROOT
