@<TRIPOS>MOLECULE
Y87
   12    12     1     0     0
SMALL
bcc


@<TRIPOS>ATOM
      1 C02         22.2150   -27.1950    -5.3970 ca         1 Y87       0.149900
      2 C03         22.9890   -26.1360    -5.8290 ca         1 Y87      -0.171000
      3 C04         23.1920   -25.0610    -4.9740 ca         1 Y87      -0.075000
      4 C05         22.6160   -25.0740    -3.7120 ca         1 Y87      -0.039900
      5 C07         21.8340   -26.1410    -3.2920 ca         1 Y87      -0.075000
      6 C08         21.6310   -27.2150    -4.1460 ca         1 Y87      -0.171000
      7 F01         22.0260   -28.2410    -6.2130 f          1 Y87      -0.137900
      8 BR06        22.8990   -23.6170    -2.5460 br         1 Y87      -0.090100
      9 H1          23.4340   -26.1410    -6.8160 ha         1 Y87       0.154000
     10 H2          23.7990   -24.2280    -5.3030 ha         1 Y87       0.151000
     11 H3          21.3810   -26.1500    -2.3110 ha         1 Y87       0.151000
     12 H4          21.0250   -28.0560    -3.8350 ha         1 Y87       0.154000
@<TRIPOS>BOND
     1     1     2 ar  
     2     1     6 ar  
     3     1     7 1   
     4     2     3 ar  
     5     2     9 1   
     6     3     4 ar  
     7     3    10 1   
     8     4     5 ar  
     9     4     8 1   
    10     5     6 ar  
    11     5    11 1   
    12     6    12 1   
@<TRIPOS>SUBSTRUCTURE
     1 Y87         1 TEMP              0 ****  ****    0 ROOT
