@<TRIPOS>MOLECULE
Y87
   12    12     1     0     0
SMALL
No Charge or Current Charge


@<TRIPOS>ATOM
      1 C02         22.2080   -27.2260    -5.4220 ca         1 Y87       0.185000
      2 C03         22.9950   -26.1410    -5.8410 ca         1 Y87      -0.153000
      3 C04         23.2020   -25.0510    -4.9760 ca         1 Y87      -0.057000
      4 C05         22.6190   -25.0540    -3.6960 ca         1 Y87      -0.039900
      5 C07         21.8300   -26.1410    -3.2780 ca         1 Y87      -0.057000
      6 C08         21.6250   -27.2300    -4.1440 ca         1 Y87      -0.153000
      7 F01         22.0110   -28.2720    -6.2530 f          1 Y87      -0.173000
      8 Br06        22.8990   -23.5720    -2.5190 br         1 Y87      -0.090100
      9 H1          23.4430   -26.1470    -6.8320 ha         1 Y87       0.136000
     10 H2          23.8110   -24.2080    -5.2970 ha         1 Y87       0.133000
     11 H3          21.3800   -26.1400    -2.2870 ha         1 Y87       0.133000
     12 H4          21.0170   -28.0740    -3.8290 ha         1 Y87       0.136000
@<TRIPOS>BOND
     1     1     2 ar  
     2     1     6 ar  
     3     1     7 1   
     4     2     3 ar  
     5     2     9 1   
     6     3     4 ar  
     7     3    10 1   
     8     4     5 ar  
     9     4     8 1   
    10     5     6 ar  
    11     5    11 1   
    12     6    12 1   
@<TRIPOS>SUBSTRUCTURE
     1 Y87         1 TEMP              0 ****  ****    0 ROOT
