@<TRIPOS>MOLECULE
Y88
   49    51     1     0     0
SMALL
abcg2


@<TRIPOS>ATOM
      1 C01        -28.1280    19.1930   -16.8610 c3         1 Y88       0.285000
      2 C02        -28.2430    20.6950   -17.0700 c3         1 Y88      -0.069400
      3 C03        -29.6790    21.1730   -16.8250 c3         1 Y88      -0.087100
      4 C04        -27.6960    21.1030   -18.4240 ca         1 Y88      -0.090300
      5 C05        -28.3850    20.8280   -19.6070 ca         1 Y88      -0.086000
      6 C06        -27.8630    21.2140   -20.8340 ca         1 Y88      -0.092500
      7 C07        -26.6470    21.8910   -20.9170 ca         1 Y88      -0.060300
      8 C08        -26.0980    22.3200   -22.2480 c3         1 Y88      -0.105100
      9 C09        -26.6260    23.6830   -22.6980 c          1 Y88       0.604100
     10 C11        -26.6940    25.3980   -24.4430 c6         1 Y88       0.081500
     11 C12        -25.5090    26.2800   -24.8140 c6         1 Y88       0.204300
     12 C14        -24.2160    26.1070   -26.9090 ca         1 Y88       0.590900
     13 C17        -23.5740    27.3380   -29.2130 ca         1 Y88       0.294000
     14 C18        -23.2960    28.0650   -30.4090 cg         1 Y88       0.232000
     15 C20        -22.9800    26.0930   -28.9510 ca         1 Y88      -0.035000
     16 C21        -23.2990    25.4660   -27.7840 ca         1 Y88      -0.197000
     17 C22        -24.1560    24.2940   -25.2120 c6         1 Y88       0.204300
     18 C23        -25.3450    23.4120   -24.8340 c6         1 Y88       0.081500
     19 C25        -25.9620    22.1680   -19.7360 ca         1 Y88      -0.092500
     20 C26        -26.4790    21.7770   -18.5060 ca         1 Y88      -0.086000
     21 F21        -26.8590    18.7520   -17.0300 f          1 Y88      -0.116667
     22 F22        -28.4920    18.8320   -15.6080 f          1 Y88      -0.116667
     23 F23        -28.9020    18.4710   -17.7030 f          1 Y88      -0.116667
     24 N10        -26.2350    24.1160   -23.9220 n          1 Y88      -0.425800
     25 N13        -24.6160    25.5760   -25.7350 nh         1 Y88      -0.782300
     26 N15        -24.7370    27.3230   -27.2350 nb         1 Y88      -0.412000
     27 N16        -24.4220    27.9150   -28.3580 nb         1 Y88      -0.227000
     28 N19        -23.0590    28.6410   -31.3800 n1         1 Y88      -0.437000
     29 O24        -27.3720    24.3480   -21.9800 o          1 Y88      -0.585100
     30 H1         -27.5950    21.1210   -16.3020 hc         1 Y88       0.080700
     31 H2         -30.0130    20.9110   -15.8210 hc         1 Y88       0.053033
     32 H3         -29.7130    22.2570   -16.9260 hc         1 Y88       0.053033
     33 H4         -30.3720    20.7410   -17.5460 hc         1 Y88       0.053033
     34 H5         -29.3320    20.3070   -19.5760 ha         1 Y88       0.118500
     35 H6         -28.4100    20.9870   -21.7420 ha         1 Y88       0.114000
     36 H7         -26.3510    21.5790   -23.0100 hc         1 Y88       0.063700
     37 H8         -25.0080    22.3680   -22.2050 hc         1 Y88       0.063700
     38 H9         -27.2980    25.8870   -23.6850 h1         1 Y88       0.067200
     39 H10        -27.3110    25.2210   -25.3290 h1         1 Y88       0.067200
     40 H11        -24.9440    26.5350   -23.9110 h1         1 Y88       0.068950
     41 H12        -25.8560    27.1950   -25.2790 h1         1 Y88       0.068950
     42 H13        -22.2880    25.6520   -29.6550 ha         1 Y88       0.139000
     43 H14        -22.8530    24.5140   -27.5480 ha         1 Y88       0.130000
     44 H15        -23.5550    23.7660   -25.9420 h1         1 Y88       0.068950
     45 H16        -23.5390    24.4760   -24.3260 h1         1 Y88       0.068950
     46 H17        -25.8990    23.1460   -25.7400 h1         1 Y88       0.067200
     47 H18        -24.9710    22.4980   -24.3860 h1         1 Y88       0.067200
     48 H19        -25.0150    22.6920   -19.7770 ha         1 Y88       0.114000
     49 H20        -25.9300    21.9990   -17.5990 ha         1 Y88       0.118500
@<TRIPOS>BOND
     1     1     2 1   
     2     1    21 1   
     3     1    22 1   
     4     1    23 1   
     5     2     3 1   
     6     2     4 1   
     7     2    30 1   
     8     3    31 1   
     9     3    32 1   
    10     3    33 1   
    11     4     5 ar  
    12     4    20 ar  
    13     5     6 ar  
    14     5    34 1   
    15     6     7 ar  
    16     6    35 1   
    17     7     8 1   
    18     7    19 ar  
    19     8     9 1   
    20     8    36 1   
    21     8    37 1   
    22     9    24 1   
    23     9    29 2   
    24    10    11 1   
    25    10    24 1   
    26    10    38 1   
    27    10    39 1   
    28    11    25 1   
    29    11    40 1   
    30    11    41 1   
    31    12    16 ar  
    32    12    25 1   
    33    12    26 ar  
    34    13    14 1   
    35    13    15 ar  
    36    13    27 ar  
    37    14    28 3   
    38    15    16 ar  
    39    15    42 1   
    40    16    43 1   
    41    17    18 1   
    42    17    25 1   
    43    17    44 1   
    44    17    45 1   
    45    18    24 1   
    46    18    46 1   
    47    18    47 1   
    48    19    20 ar  
    49    19    48 1   
    50    20    49 1   
    51    26    27 ar  
@<TRIPOS>SUBSTRUCTURE
     1 Y88         1 TEMP              0 ****  ****    0 ROOT
