@<TRIPOS>MOLECULE
Y88
   49    51     1     0     0
SMALL
No Charge or Current Charge


@<TRIPOS>ATOM
      1 C01        -29.2360    19.5210   -18.2740 c3         1 Y88       0.285000
      2 C02        -29.2820    20.8880   -19.0160 c3         1 Y88      -0.069400
      3 C03        -30.2660    20.8930   -20.2160 c3         1 Y88      -0.087100
      4 C04        -27.8850    21.3710   -19.4290 ca         1 Y88      -0.090300
      5 C05        -27.1960    20.7840   -20.5100 ca         1 Y88      -0.086000
      6 C06        -25.9160    21.2370   -20.8730 ca         1 Y88      -0.092500
      7 C07        -25.3030    22.2880   -20.1640 ca         1 Y88      -0.060300
      8 C08        -23.9150    22.7890   -20.5580 c3         1 Y88      -0.105100
      9 C09        -23.9700    24.2470   -21.0540 c          1 Y88       0.604100
     10 C11        -24.0730    25.9260   -22.9110 c6         1 Y88       0.081500
     11 C12        -23.8780    26.1180   -24.4370 c6         1 Y88       0.204300
     12 C14        -25.2410    25.6560   -26.5110 ca         1 Y88       0.590900
     13 C17        -26.1250    26.6440   -28.9210 ca         1 Y88       0.294000
     14 C18        -26.5950    27.2300   -30.1500 cg         1 Y88       0.232000
     15 C20        -25.7740    25.2820   -28.8470 ca         1 Y88      -0.035000
     16 C21        -25.3200    24.7750   -27.6100 ca         1 Y88      -0.197000
     17 C22        -24.6770    23.8200   -24.8600 c6         1 Y88       0.204300
     18 C23        -24.8540    23.5830   -23.3340 c6         1 Y88       0.081500
     19 C25        -25.9850    22.8690   -19.0780 ca         1 Y88      -0.092500
     20 C26        -27.2640    22.4150   -18.7140 ca         1 Y88      -0.086000
     21 F21        -28.3910    19.5740   -17.2190 f          1 Y88      -0.116667
     22 F22        -30.4590    19.1860   -17.8010 f          1 Y88      -0.116667
     23 F23        -28.8210    18.5230   -19.0880 f          1 Y88      -0.116667
     24 N10        -24.0760    24.5040   -22.4430 n          1 Y88      -0.425800
     25 N13        -24.8050    25.2570   -25.2250 nh         1 Y88      -0.782300
     26 N15        -25.5920    26.9590   -26.6480 nb         1 Y88      -0.412000
     27 N16        -26.0280    27.4500   -27.8320 nb         1 Y88      -0.227000
     28 N19        -26.9760    27.6950   -31.1530 n1         1 Y88      -0.437000
     29 O24        -23.8880    25.1720   -20.2540 o          1 Y88      -0.585100
     30 H1         -29.6910    21.6070   -18.2950 hc         1 Y88       0.080700
     31 H2         -31.2900    20.6830   -19.8810 hc         1 Y88       0.053033
     32 H3         -30.2680    21.8740   -20.7050 hc         1 Y88       0.053033
     33 H4         -29.9950    20.1380   -20.9630 hc         1 Y88       0.053033
     34 H5         -27.6450    19.9690   -21.0730 ha         1 Y88       0.118500
     35 H6         -25.4030    20.7640   -21.7070 ha         1 Y88       0.114000
     36 H7         -23.5050    22.1450   -21.3420 hc         1 Y88       0.063700
     37 H8         -23.2610    22.7430   -19.6810 hc         1 Y88       0.063700
     38 H9         -23.2790    26.4830   -22.3920 h1         1 Y88       0.067200
     39 H10        -25.0290    26.3860   -22.6240 h1         1 Y88       0.067200
     40 H11        -22.8370    25.8720   -24.6930 h1         1 Y88       0.068950
     41 H12        -24.0180    27.1850   -24.6650 h1         1 Y88       0.068950
     42 H13        -25.8480    24.6400   -29.7210 ha         1 Y88       0.139000
     43 H14        -25.0290    23.7340   -27.5250 ha         1 Y88       0.130000
     44 H15        -25.4340    23.2140   -25.3780 h1         1 Y88       0.068950
     45 H16        -23.6890    23.4440   -25.1650 h1         1 Y88       0.068950
     46 H17        -25.9200    23.6940   -23.0890 h1         1 Y88       0.067200
     47 H18        -24.5900    22.5370   -23.1370 h1         1 Y88       0.067200
     48 H19        -25.5240    23.6750   -18.5120 ha         1 Y88       0.114000
     49 H20        -27.7720    22.8800   -17.8720 ha         1 Y88       0.118500
@<TRIPOS>BOND
     1     1     2 1   
     2     1    21 1   
     3     1    22 1   
     4     1    23 1   
     5     2     3 1   
     6     2     4 1   
     7     2    30 1   
     8     3    31 1   
     9     3    32 1   
    10     3    33 1   
    11     4     5 ar  
    12     4    20 ar  
    13     5     6 ar  
    14     5    34 1   
    15     6     7 ar  
    16     6    35 1   
    17     7     8 1   
    18     7    19 ar  
    19     8     9 1   
    20     8    36 1   
    21     8    37 1   
    22     9    24 1   
    23     9    29 2   
    24    10    11 1   
    25    10    24 1   
    26    10    38 1   
    27    10    39 1   
    28    11    25 1   
    29    11    40 1   
    30    11    41 1   
    31    12    16 ar  
    32    12    25 1   
    33    12    26 ar  
    34    13    14 1   
    35    13    15 ar  
    36    13    27 ar  
    37    14    28 3   
    38    15    16 ar  
    39    15    42 1   
    40    16    43 1   
    41    17    18 1   
    42    17    25 1   
    43    17    44 1   
    44    17    45 1   
    45    18    24 1   
    46    18    46 1   
    47    18    47 1   
    48    19    20 ar  
    49    19    48 1   
    50    20    49 1   
    51    26    27 ar  
@<TRIPOS>SUBSTRUCTURE
     1 Y88         1 TEMP              0 ****  ****    0 ROOT
