@<TRIPOS>MOLECULE
Y89
   46    49     1     0     0
SMALL
No Charge or Current Charge


@<TRIPOS>ATOM
      1 C01        -27.5530    24.5960   -24.9000 c6         1 Y89       0.088500
      2 C02        -26.6370    25.8440   -25.0050 c6         1 Y89       0.202800
      3 C04        -26.9170    21.3230   -18.9460 ca         1 Y89      -0.035300
      4 C05        -25.7580    21.3600   -19.7460 ca         1 Y89      -0.107000
      5 C06        -25.8480    21.2590   -21.1450 ca         1 Y89      -0.089000
      6 C07        -27.1010    21.1200   -21.7700 ca         1 Y89      -0.075300
      7 C08        -27.2090    21.0150   -23.2900 c3         1 Y89      -0.100100
      8 C09        -27.8020    22.3100   -23.8860 c          1 Y89       0.603100
      9 C11        -25.4880    23.1830   -24.5200 c6         1 Y89       0.088500
     10 C12        -24.6370    24.4770   -24.6410 c6         1 Y89       0.202800
     11 C14        -24.4860    26.4350   -26.2020 ca         1 Y89       0.567900
     12 C17        -23.0530    28.3800   -27.4940 ca         1 Y89       0.327000
     13 C20        -22.6130    27.0500   -27.6110 ca         1 Y89      -0.068000
     14 C21        -23.3530    26.0490   -26.9470 ca         1 Y89      -0.172000
     15 C22        -26.7890    21.4340   -17.4460 cx         1 Y89      -0.089400
     16 C23        -27.8070    22.1700   -16.6000 cx         1 Y89      -0.121900
     17 C24        -27.6870    20.6690   -16.4980 cx         1 Y89      -0.121900
     18 C25        -28.2610    21.0780   -20.9750 ca         1 Y89      -0.089000
     19 C26        -28.1710    21.1790   -19.5760 ca         1 Y89      -0.107000
     20 N10        -26.9500    23.3850   -24.2510 n          1 Y89      -0.426800
     21 N13        -25.2840    25.4900   -25.5140 nh         1 Y89      -0.782300
     22 N15        -24.8600    27.7390   -26.1370 nb         1 Y89      -0.400000
     23 N16        -24.1540    28.7030   -26.7730 nb         1 Y89      -0.261000
     24 O24        -29.0180    22.4370   -23.9640 o          1 Y89      -0.585100
     25 Cl11       -22.1940    29.6940   -28.2890 cl         1 Y89      -0.162000
     26 H1         -28.4640    24.8890   -24.3580 h1         1 Y89       0.064450
     27 H2         -27.8640    24.3150   -25.9160 h1         1 Y89       0.064450
     28 H3         -26.5530    26.3090   -24.0110 h1         1 Y89       0.062200
     29 H4         -27.1330    26.5700   -25.6650 h1         1 Y89       0.062200
     30 H6         -24.9370    21.2880   -21.7390 ha         1 Y89       0.109000
     31 H7         -27.8760    20.1820   -23.5380 hc         1 Y89       0.061200
     32 H8         -26.2200    20.8030   -23.7050 hc         1 Y89       0.061200
     33 H9         -25.3850    22.6110   -25.4530 h1         1 Y89       0.064450
     34 H10        -25.0380    22.5850   -23.7180 h1         1 Y89       0.064450
     35 H11        -23.6390    24.2010   -25.0100 h1         1 Y89       0.062200
     36 H12        -24.4970    24.8980   -23.6340 h1         1 Y89       0.062200
     37 H13        -21.7330    26.8070   -28.2000 ha         1 Y89       0.142000
     38 H14        -23.0650    25.0060   -27.0230 ha         1 Y89       0.129000
     39 H15        -25.7530    21.5380   -17.1300 hc         1 Y89       0.079700
     40 H16        -28.6870    22.5790   -17.0900 hc         1 Y89       0.073200
     41 H17        -27.4360    22.7650   -15.7690 hc         1 Y89       0.073200
     42 H18        -28.4870    20.0640   -16.9190 hc         1 Y89       0.073200
     43 H19        -27.2370    20.2560   -15.5990 hc         1 Y89       0.073200
     44 H20        -29.2380    20.9680   -21.4410 ha         1 Y89       0.109000
     45 H21        -29.0840    21.1450   -18.9880 ha         1 Y89       0.112000
     46 H5         -24.7790    21.4680   -19.2840 ha         1 Y89       0.112000
@<TRIPOS>BOND
     1     1     2 1   
     2     1    20 1   
     3     1    26 1   
     4     1    27 1   
     5     2    21 1   
     6     2    28 1   
     7     2    29 1   
     8     3     4 ar  
     9     3    15 1   
    10     3    19 ar  
    11     4     5 ar  
    12     4    46 1   
    13     5     6 ar  
    14     5    30 1   
    15     6     7 1   
    16     6    18 ar  
    17     7     8 1   
    18     7    31 1   
    19     7    32 1   
    20     8    20 1   
    21     8    24 2   
    22     9    10 1   
    23     9    20 1   
    24     9    33 1   
    25     9    34 1   
    26    10    21 1   
    27    10    35 1   
    28    10    36 1   
    29    11    14 ar  
    30    11    21 1   
    31    11    22 ar  
    32    12    13 ar  
    33    12    23 ar  
    34    12    25 1   
    35    13    14 ar  
    36    13    37 1   
    37    14    38 1   
    38    15    16 1   
    39    15    17 1   
    40    15    39 1   
    41    16    17 1   
    42    16    40 1   
    43    16    41 1   
    44    17    42 1   
    45    17    43 1   
    46    18    19 ar  
    47    18    44 1   
    48    19    45 1   
    49    22    23 ar  
@<TRIPOS>SUBSTRUCTURE
     1 Y89         1 TEMP              0 ****  ****    0 ROOT
