@<TRIPOS>MOLECULE
Y89
   46    49     1     0     0
SMALL
abcg2


@<TRIPOS>ATOM
      1 C01        -26.9340    25.3600   -24.4510 c6         1 Y89       0.088500
      2 C02        -25.8430    26.2950   -24.9530 c6         1 Y89       0.202800
      3 C04        -27.4100    21.0970   -18.3310 ca         1 Y89      -0.035300
      4 C05        -26.2410    21.8420   -18.5010 ca         1 Y89      -0.107000
      5 C06        -25.8130    22.2330   -19.7640 ca         1 Y89      -0.089000
      6 C07        -26.5390    21.8930   -20.9030 ca         1 Y89      -0.075300
      7 C08        -26.0890    22.3300   -22.2680 c3         1 Y89      -0.100100
      8 C09        -26.6950    23.6680   -22.6990 c          1 Y89       0.603100
      9 C11        -25.5110    23.4420   -24.8960 c6         1 Y89       0.088500
     10 C12        -24.4130    24.3720   -25.4010 c6         1 Y89       0.202800
     11 C14        -24.4570    26.2810   -26.9840 ca         1 Y89       0.567900
     12 C17        -23.6390    27.7000   -29.0990 ca         1 Y89       0.327000
     13 C20        -23.0890    26.4220   -28.9400 ca         1 Y89      -0.068000
     14 C21        -23.5010    25.6990   -27.8600 ca         1 Y89      -0.172000
     15 C22        -27.8330    20.6950   -16.9660 cx         1 Y89      -0.089400
     16 C23        -29.2940    20.6100   -16.5830 cx         1 Y89      -0.121900
     17 C24        -28.4860    19.3550   -16.7030 cx         1 Y89      -0.121900
     18 C25        -27.7050    21.1460   -20.7380 ca         1 Y89      -0.089000
     19 C26        -28.1350    20.7540   -19.4780 ca         1 Y89      -0.107000
     20 N10        -26.3630    24.1230   -23.9330 n          1 Y89      -0.426800
     21 N13        -24.9830    25.6110   -25.9180 nh         1 Y89      -0.782300
     22 N15        -24.9020    27.5320   -27.2000 nb         1 Y89      -0.400000
     23 N16        -24.4950    28.2250   -28.2630 nb         1 Y89      -0.261000
     24 O24        -27.4510    24.2950   -21.9570 o          1 Y89      -0.585100
     25 CL11       -23.1700    28.6830   -30.4670 cl         1 Y89      -0.162000
     26 H1         -27.4980    25.8420   -23.6590 h1         1 Y89       0.064450
     27 H2         -27.6150    25.1170   -25.2730 h1         1 Y89       0.064450
     28 H3         -25.2370    26.6440   -24.1090 h1         1 Y89       0.062200
     29 H4         -26.2950    27.1580   -25.4280 h1         1 Y89       0.062200
     30 H6         -24.9000    22.8100   -19.8660 ha         1 Y89       0.109000
     31 H7         -26.3580    21.5750   -23.0100 hc         1 Y89       0.061200
     32 H8         -25.0000    22.4200   -22.2940 hc         1 Y89       0.061200
     33 H9         -26.1230    23.1140   -25.7440 h1         1 Y89       0.064450
     34 H10        -25.0480    22.5670   -24.4550 h1         1 Y89       0.064450
     35 H11        -23.8640    23.8460   -26.1750 h1         1 Y89       0.062200
     36 H12        -23.7190    24.6000   -24.5830 h1         1 Y89       0.062200
     37 H13        -22.3670    26.0320   -29.6430 ha         1 Y89       0.142000
     38 H14        -23.1000    24.7120   -27.6960 ha         1 Y89       0.129000
     39 H15        -27.1700    21.0480   -16.1860 hc         1 Y89       0.079700
     40 H16        -30.0200    20.8220   -17.3570 hc         1 Y89       0.073200
     41 H17        -29.5720    20.9510   -15.5950 hc         1 Y89       0.073200
     42 H18        -28.6620    18.7180   -17.5610 hc         1 Y89       0.073200
     43 H19        -28.2070    18.8310   -15.7980 hc         1 Y89       0.073200
     44 H20        -28.2850    20.8660   -21.6100 ha         1 Y89       0.109000
     45 H21        -29.0460    20.1740   -19.3920 ha         1 Y89       0.112000
     46 H5         -25.6570    22.1160   -17.6290 ha         1 Y89       0.112000
@<TRIPOS>BOND
     1     1     2 1   
     2     1    20 1   
     3     1    26 1   
     4     1    27 1   
     5     2    21 1   
     6     2    28 1   
     7     2    29 1   
     8     3     4 ar  
     9     3    15 1   
    10     3    19 ar  
    11     4     5 ar  
    12     4    46 1   
    13     5     6 ar  
    14     5    30 1   
    15     6     7 1   
    16     6    18 ar  
    17     7     8 1   
    18     7    31 1   
    19     7    32 1   
    20     8    20 1   
    21     8    24 2   
    22     9    10 1   
    23     9    20 1   
    24     9    33 1   
    25     9    34 1   
    26    10    21 1   
    27    10    35 1   
    28    10    36 1   
    29    11    14 ar  
    30    11    21 1   
    31    11    22 ar  
    32    12    13 ar  
    33    12    23 ar  
    34    12    25 1   
    35    13    14 ar  
    36    13    37 1   
    37    14    38 1   
    38    15    16 1   
    39    15    17 1   
    40    15    39 1   
    41    16    17 1   
    42    16    40 1   
    43    16    41 1   
    44    17    42 1   
    45    17    43 1   
    46    18    19 ar  
    47    18    44 1   
    48    19    45 1   
    49    22    23 ar  
@<TRIPOS>SUBSTRUCTURE
     1 Y89         1 TEMP              0 ****  ****    0 ROOT
