@<TRIPOS>MOLECULE
Y8A
   43    46     1     0     0
SMALL
abcg2


@<TRIPOS>ATOM
      1 C01          3.3080     0.3840     0.7270 ca         1 Y8A      -0.101000
      2 C02          3.4610     1.6980     0.3190 ca         1 Y8A       0.110100
      3 C03          2.5640     2.2650    -0.6090 ca         1 Y8A      -0.162000
      4 C04          1.5200     1.5300    -1.1410 ca         1 Y8A      -0.090000
      5 C05          1.3750     0.2050    -0.7440 ca         1 Y8A      -0.063200
      6 C06          2.2540    -0.3670     0.1990 ca         1 Y8A      -0.055800
      7 C08          0.7110    -1.8900    -0.4010 cc         1 Y8A      -0.168700
      8 C09          1.7990    -1.6950     0.4100 cd         1 Y8A      -0.115400
      9 C10          0.0890    -3.2170    -0.4780 ce         1 Y8A       0.485600
     10 C12          1.1410    -3.7260     1.5670 c6         1 Y8A       0.100800
     11 C13          2.3170    -2.8100     1.2470 c6         1 Y8A      -0.029200
     12 C14         -0.7880    -3.6150    -1.6270 c3         1 Y8A      -0.137400
     13 C16         -1.7820     0.2890    -1.0710 ca         1 Y8A      -0.116300
     14 C17         -2.1990     1.5780    -1.3790 ca         1 Y8A      -0.084000
     15 C18         -3.1750     2.2170    -0.6250 ca         1 Y8A      -0.103000
     16 C19         -3.7340     1.5510     0.4510 ca         1 Y8A       0.128000
     17 C20         -3.3370     0.2630     0.7810 ca         1 Y8A      -0.103000
     18 C21         -2.3640    -0.3580     0.0160 ca         1 Y8A      -0.084000
     19 C24          4.6960     3.7260     0.4920 c3         1 Y8A       0.151900
     20 N07          0.4540    -0.7400    -1.1260 na         1 Y8A      -0.067700
     21 N11          0.3240    -4.0890     0.4230 n2         1 Y8A      -0.582900
     22 O23          4.4970     2.3790     0.8630 os         1 Y8A      -0.346100
     23 CL22        -4.9510     2.3360     1.4040 cl         1 Y8A      -0.200000
     24 H1           3.9930    -0.0480     1.4470 ha         1 Y8A       0.130000
     25 H2           2.6770     3.2920    -0.9270 ha         1 Y8A       0.114000
     26 H3           0.8510     1.9980    -1.8510 ha         1 Y8A       0.113000
     27 H4           1.4910    -4.6440     2.0410 h1         1 Y8A       0.061200
     28 H5           0.4930    -3.2270     2.2990 h1         1 Y8A       0.061200
     29 H6           3.1060    -3.3570     0.7170 hc         1 Y8A       0.058700
     30 H7           2.7600    -2.4470     2.1760 hc         1 Y8A       0.058700
     31 H8          -0.3470    -3.3470    -2.5880 hc         1 Y8A       0.053700
     32 H9          -0.9470    -4.6910    -1.6030 hc         1 Y8A       0.053700
     33 H10         -1.7680    -3.1370    -1.5660 hc         1 Y8A       0.053700
     34 H11         -1.1160    -1.2840    -2.3740 h1         1 Y8A       0.067700
     35 H12         -0.4050     0.2600    -2.7140 h1         1 Y8A       0.067700
     36 H13         -1.7620     2.1020    -2.2210 ha         1 Y8A       0.119500
     37 H14         -3.4870     3.2220    -0.8760 ha         1 Y8A       0.132000
     38 H15         -3.7830    -0.2530     1.6200 ha         1 Y8A       0.132000
     39 H16         -2.0660    -1.3660     0.2800 ha         1 Y8A       0.119500
     40 H17          4.8850     3.8370    -0.5800 h1         1 Y8A       0.037700
     41 H18          3.8480     4.3600     0.7660 h1         1 Y8A       0.037700
     42 H19          5.5730     4.0690     1.0350 h1         1 Y8A       0.037700
     43 C15         -0.7190    -0.3920    -1.8980 c3         1 Y8A       0.123900
@<TRIPOS>BOND
     1     1     2 ar  
     2     1     6 ar  
     3     1    24 1   
     4     2     3 ar  
     5     2    22 1   
     6     3     4 ar  
     7     3    25 1   
     8     4     5 ar  
     9     4    26 1   
    10     5     6 ar  
    11     5    20 1   
    12     6     8 1   
    13     7     8 2   
    14     7     9 1   
    15     7    20 1   
    16     8    11 1   
    17     9    12 1   
    18     9    21 2   
    19    10    11 1   
    20    10    21 1   
    21    10    27 1   
    22    10    28 1   
    23    11    29 1   
    24    11    30 1   
    25    12    31 1   
    26    12    32 1   
    27    12    33 1   
    28    13    14 ar  
    29    13    18 ar  
    30    13    43 1   
    31    14    15 ar  
    32    14    36 1   
    33    15    16 ar  
    34    15    37 1   
    35    16    17 ar  
    36    16    23 1   
    37    17    18 ar  
    38    17    38 1   
    39    18    39 1   
    40    19    22 1   
    41    19    40 1   
    42    19    41 1   
    43    19    42 1   
    44    20    43 1   
    45    34    43 1   
    46    35    43 1   
@<TRIPOS>SUBSTRUCTURE
     1 Y8A         1 TEMP              0 ****  ****    0 ROOT
