@<TRIPOS>MOLECULE
Y8A
   43    46     1     0     0
SMALL
No Charge or Current Charge


@<TRIPOS>ATOM
      1 C01          3.2440     0.2970     0.7260 ca         1 Y8A      -0.101000
      2 C02          3.3650     1.6610     0.3850 ca         1 Y8A       0.110100
      3 C03          2.4530     2.2430    -0.5400 ca         1 Y8A      -0.162000
      4 C04          1.4250     1.4670    -1.1200 ca         1 Y8A      -0.090000
      5 C05          1.3350     0.1120    -0.7610 ca         1 Y8A      -0.063200
      6 C06          2.2160    -0.4400     0.1270 ca         1 Y8A      -0.055800
      7 C08          0.7470    -2.1040    -0.5560 cc         1 Y8A      -0.168700
      8 C09          1.8250    -1.8170     0.2630 cd         1 Y8A      -0.115400
      9 C10          0.0660    -3.4080    -0.5960 ce         1 Y8A       0.485600
     10 C12          1.1170    -3.8450     1.5350 c6         1 Y8A       0.100800
     11 C13          2.3060    -2.8940     1.2050 c6         1 Y8A      -0.029200
     12 C14         -0.6380    -3.8320    -1.8680 c3         1 Y8A      -0.137400
     13 C16         -1.7830     0.3700    -1.0280 ca         1 Y8A      -0.116300
     14 C17         -2.4720     1.4450    -1.6230 ca         1 Y8A      -0.084000
     15 C18         -3.3570     2.2300    -0.8620 ca         1 Y8A      -0.103000
     16 C19         -3.5600     1.9410     0.4970 ca         1 Y8A       0.128000
     17 C20         -2.8830     0.8680     1.0970 ca         1 Y8A      -0.103000
     18 C21         -1.9980     0.0820     0.3380 ca         1 Y8A      -0.084000
     19 C24          4.5920     3.7790     0.7010 c3         1 Y8A       0.151900
     20 N07          0.4180    -0.8600    -1.1570 na         1 Y8A      -0.067700
     21 N11          0.3480    -4.2750     0.3350 n2         1 Y8A      -0.582900
     22 O23          4.3820     2.3830     0.9770 os         1 Y8A      -0.346100
     23 Cl22        -4.6670     2.9230     1.4480 cl         1 Y8A      -0.200000
     24 H1           3.9290    -0.1650     1.4310 ha         1 Y8A       0.130000
     25 H2           2.5250     3.2910    -0.8150 ha         1 Y8A       0.114000
     26 H3           0.7240     1.9140    -1.8200 ha         1 Y8A       0.113000
     27 H4           1.4930    -4.7350     2.0600 h1         1 Y8A       0.061200
     28 H5           0.4260    -3.3300     2.2180 h1         1 Y8A       0.061200
     29 H6           3.1200    -3.4650     0.7370 hc         1 Y8A       0.058700
     30 H7           2.7110    -2.4630     2.1310 hc         1 Y8A       0.058700
     31 H8          -0.3110    -3.2420    -2.7310 hc         1 Y8A       0.053700
     32 H9          -0.4240    -4.8800    -2.1030 hc         1 Y8A       0.053700
     33 H10         -1.7240    -3.7290    -1.7670 hc         1 Y8A       0.053700
     34 H11         -1.3590    -1.3660    -2.1970 h1         1 Y8A       0.067700
     35 H12         -0.5380     0.0790    -2.7710 h1         1 Y8A       0.067700
     36 H13         -2.3220     1.6780    -2.6750 ha         1 Y8A       0.119500
     37 H14         -3.8840     3.0600    -1.3240 ha         1 Y8A       0.132000
     38 H15         -3.0430     0.6450     2.1480 ha         1 Y8A       0.132000
     39 H16         -1.4810    -0.7480     0.8150 ha         1 Y8A       0.119500
     40 H17          4.8000     3.9390    -0.3650 h1         1 Y8A       0.037700
     41 H18          3.7100     4.3700     0.9810 h1         1 Y8A       0.037700
     42 H19          5.4490     4.1550     1.2740 h1         1 Y8A       0.037700
     43 C15         -0.8220    -0.4730    -1.8670 c3         1 Y8A       0.123900
@<TRIPOS>BOND
     1     1     2 ar  
     2     1     6 ar  
     3     1    24 1   
     4     2     3 ar  
     5     2    22 1   
     6     3     4 ar  
     7     3    25 1   
     8     4     5 ar  
     9     4    26 1   
    10     5     6 ar  
    11     5    20 1   
    12     6     8 1   
    13     7     8 2   
    14     7     9 1   
    15     7    20 1   
    16     8    11 1   
    17     9    12 1   
    18     9    21 2   
    19    10    11 1   
    20    10    21 1   
    21    10    27 1   
    22    10    28 1   
    23    11    29 1   
    24    11    30 1   
    25    12    31 1   
    26    12    32 1   
    27    12    33 1   
    28    13    14 ar  
    29    13    18 ar  
    30    13    43 1   
    31    14    15 ar  
    32    14    36 1   
    33    15    16 ar  
    34    15    37 1   
    35    16    17 ar  
    36    16    23 1   
    37    17    18 ar  
    38    17    38 1   
    39    18    39 1   
    40    19    22 1   
    41    19    40 1   
    42    19    41 1   
    43    19    42 1   
    44    20    43 1   
    45    34    43 1   
    46    35    43 1   
@<TRIPOS>SUBSTRUCTURE
     1 Y8A         1 TEMP              0 ****  ****    0 ROOT
