@<TRIPOS>MOLECULE
Y8C
   48    51     1     0     0
SMALL
No Charge or Current Charge


@<TRIPOS>ATOM
      1 N1          18.8800    -6.1160     1.4670 nb         1 Y8C      -0.230000
      2 N3          17.0200    -6.3850    -0.1420 na         1 Y8C      -0.327400
      3 C4          20.2200    -5.9260     1.5150 ca         1 Y8C       0.173900
      4 C5          18.2690    -6.2210    -2.0360 cc         1 Y8C      -0.202200
      5 C6          16.9790    -6.3850    -1.5590 cd         1 Y8C      -0.179100
      6 C7          21.4320    -6.9710    -2.8560 c6         1 Y8C       0.206800
      7 C8          21.8040    -6.4780    -4.2850 c6         1 Y8C       0.084700
      8 C10         23.0660    -4.5530    -3.2020 c6         1 Y8C      -0.099400
      9 C13         21.2680    -9.3510    -6.8700 c3         1 Y8C       0.135800
     10 C15         24.2240    -8.5120    -7.3130 ca         1 Y8C      -0.172000
     11 C17         25.5390    -6.6430    -8.1500 ca         1 Y8C      -0.147000
     12 C1          20.5130    -5.9330    -0.7680 ca         1 Y8C       0.441900
     13 C11         22.6430    -5.0640    -1.8020 c6         1 Y8C       0.221800
     14 C12         20.8580    -8.2380    -5.8510 c          1 Y8C       0.558100
     15 C14         23.1480    -8.1240    -8.1270 ca         1 Y8C       0.322000
     16 C16         25.4140    -7.7700    -7.3230 ca         1 Y8C       0.168000
     17 C18         24.4690    -6.2590    -8.9760 ca         1 Y8C      -0.061000
     18 C19         23.2750    -7.0030    -8.9610 ca         1 Y8C      -0.171000
     19 C2          19.1240    -6.1230    -0.8870 ca         1 Y8C      -0.246800
     20 C3          18.3420    -6.2110     0.2370 ca         1 Y8C       0.141500
     21 C9          23.1460    -5.7070    -4.2310 c6         1 Y8C      -0.086400
     22 N2          21.0640    -5.8260     0.4600 nb         1 Y8C      -0.304000
     23 N4          21.3700    -5.8380    -1.8860 nh         1 Y8C      -0.784300
     24 N5          21.9120    -7.5950    -5.2350 ns         1 Y8C      -0.503900
     25 N6          21.9440    -8.8280    -8.1040 nu         1 Y8C      -0.932200
     26 O1          19.6940    -7.9390    -5.6160 o          1 Y8C      -0.602100
     27 Cl1         26.7520    -8.2510    -6.2900 cl         1 Y8C      -0.224000
     28 H1          16.2310    -6.4840     0.4900 hn         1 Y8C       0.360000
     29 H2          20.6650    -5.8440     2.5050 h5         1 Y8C       0.043100
     30 H3          18.5550    -6.1640    -3.0860 ha         1 Y8C       0.227000
     31 H4          16.0480    -6.4940    -2.1130 h4         1 Y8C       0.218000
     32 H5          20.4710    -7.5010    -2.9030 h1         1 Y8C       0.061200
     33 H6          22.1800    -7.7060    -2.5230 h1         1 Y8C       0.061200
     34 H7          21.0150    -5.7960    -4.6350 h1         1 Y8C       0.089700
     35 H8          24.0360    -4.0440    -3.1320 hc         1 Y8C       0.056200
     36 H9          22.3430    -3.8010    -3.5470 hc         1 Y8C       0.056200
     37 H10         20.3530    -9.8950    -7.1430 h1         1 Y8C       0.068200
     38 H11         21.9220   -10.0580    -6.3420 h1         1 Y8C       0.068200
     39 H13         26.4630    -6.0710    -8.1530 ha         1 Y8C       0.131000
     40 H14         22.5270    -4.1950    -1.1360 h1         1 Y8C       0.068200
     41 H15         23.4440    -5.6930    -1.3850 h1         1 Y8C       0.068200
     42 H16         24.5610    -5.3870    -9.6200 ha         1 Y8C       0.116000
     43 H17         22.4460    -6.6970    -9.5930 ha         1 Y8C       0.115000
     44 H18         23.9630    -6.3900    -3.9580 hc         1 Y8C       0.045700
     45 H19         23.3900    -5.3050    -5.2250 hc         1 Y8C       0.045700
     46 H20         22.8380    -7.8910    -5.5190 hn         1 Y8C       0.312500
     47 H21         21.3120    -8.5780    -8.8700 hn         1 Y8C       0.479000
     48 H12         24.1460    -9.3880    -6.6770 ha         1 Y8C       0.124000
@<TRIPOS>BOND
     1     1     3 ar  
     2     1    20 ar  
     3     2     5 1   
     4     2    20 1   
     5     2    28 1   
     6     3    22 ar  
     7     3    29 1   
     8     4     5 2   
     9     4    19 1   
    10     4    30 1   
    11     5    31 1   
    12     6     7 1   
    13     6    23 1   
    14     6    32 1   
    15     6    33 1   
    16     7    21 1   
    17     7    24 1   
    18     7    34 1   
    19     8    13 1   
    20     8    21 1   
    21     8    35 1   
    22     8    36 1   
    23     9    14 1   
    24     9    25 1   
    25     9    37 1   
    26     9    38 1   
    27    10    15 ar  
    28    10    16 ar  
    29    10    48 1   
    30    11    16 ar  
    31    11    17 ar  
    32    11    39 1   
    33    12    19 ar  
    34    12    22 ar  
    35    12    23 1   
    36    13    23 1   
    37    13    40 1   
    38    13    41 1   
    39    14    24 1   
    40    14    26 2   
    41    15    18 ar  
    42    15    25 1   
    43    16    27 1   
    44    17    18 ar  
    45    17    42 1   
    46    18    43 1   
    47    19    20 ar  
    48    21    44 1   
    49    21    45 1   
    50    24    46 1   
    51    25    47 1   
@<TRIPOS>SUBSTRUCTURE
     1 Y8C         1 TEMP              0 ****  ****    0 ROOT
