@<TRIPOS>MOLECULE
Y8C
   48    51     1     0     0
SMALL
abcg2


@<TRIPOS>ATOM
      1 N1          18.1190    -4.7880     0.1010 nb         1 Y8C      -0.230000
      2 N3          17.3130    -5.1870    -2.1250 na         1 Y8C      -0.327400
      3 C4          19.2050    -4.9880     0.8360 ca         1 Y8C       0.173900
      4 C5          19.0450    -6.2890    -3.0290 cc         1 Y8C      -0.202200
      5 C6          17.8030    -5.7720    -3.2750 cd         1 Y8C      -0.179100
      6 C7          21.7460    -7.7330    -2.1670 c6         1 Y8C       0.206800
      7 C8          22.7620    -7.0960    -3.1280 c6         1 Y8C       0.084700
      8 C10         23.8430    -6.0580    -1.0960 c6         1 Y8C      -0.099400
      9 C13         22.5560    -9.0830    -6.3830 c3         1 Y8C       0.135800
     10 C15         23.5520    -6.9570    -8.0980 ca         1 Y8C      -0.172000
     11 C17         23.1860    -5.5120   -10.0230 ca         1 Y8C      -0.147000
     12 C1          20.4200    -6.1970    -0.7310 ca         1 Y8C       0.441900
     13 C11         22.7790    -6.7220    -0.2200 c6         1 Y8C       0.221800
     14 C12         22.1740    -8.0230    -5.3390 c          1 Y8C       0.558100
     15 C14         22.4190    -7.7150    -8.4310 ca         1 Y8C       0.322000
     16 C16         23.9070    -5.8820    -8.9000 ca         1 Y8C       0.168000
     17 C18         22.0570    -6.2680   -10.3410 ca         1 Y8C      -0.061000
     18 C19         21.6750    -7.3480    -9.5660 ca         1 Y8C      -0.171000
     19 C2          19.3470    -6.0150    -1.6480 ca         1 Y8C      -0.246800
     20 C3          18.2360    -5.3060    -1.1320 ca         1 Y8C       0.141500
     21 C9          24.0760    -6.8360    -2.3920 c6         1 Y8C      -0.086400
     22 N2          20.3170    -5.6410     0.4950 nb         1 Y8C      -0.304000
     23 N4          21.5520    -6.8980    -0.9960 nh         1 Y8C      -0.784300
     24 N5          22.9970    -7.9540    -4.2790 ns         1 Y8C      -0.503900
     25 N6          22.0420    -8.8240    -7.7010 nu         1 Y8C      -0.932200
     26 O1          21.1740    -7.3200    -5.4680 o          1 Y8C      -0.602100
     27 CL1         25.3290    -4.9500    -8.4570 cl         1 Y8C      -0.224000
     28 H1          16.4290    -4.7120    -2.0340 hn         1 Y8C       0.360000
     29 H2          19.1910    -4.5760     1.8410 h5         1 Y8C       0.043100
     30 H3          19.6630    -6.7660    -3.7700 ha         1 Y8C       0.227000
     31 H4          17.2240    -5.7650    -4.1830 h4         1 Y8C       0.218000
     32 H5          20.8030    -7.9290    -2.6600 h1         1 Y8C       0.061200
     33 H6          22.1470    -8.6960    -1.8320 h1         1 Y8C       0.061200
     34 H7          22.3460    -6.1550    -3.4940 h1         1 Y8C       0.089700
     35 H8          24.7770    -5.9830    -0.5350 hc         1 Y8C       0.056200
     36 H9          23.5180    -5.0400    -1.3280 hc         1 Y8C       0.056200
     37 H10         22.1420   -10.0320    -6.0390 h1         1 Y8C       0.068200
     38 H11         23.6410    -9.2050    -6.4080 h1         1 Y8C       0.068200
     39 H13         23.4870    -4.6670   -10.6250 ha         1 Y8C       0.131000
     40 H14         22.5590    -6.1220     0.6550 h1         1 Y8C       0.068200
     41 H15         23.1240    -7.7060     0.1130 h1         1 Y8C       0.068200
     42 H16         21.4680    -6.0020   -11.2100 ha         1 Y8C       0.116000
     43 H17         20.7950    -7.9240    -9.8270 ha         1 Y8C       0.115000
     44 H18         24.5340    -7.8030    -2.1540 hc         1 Y8C       0.045700
     45 H19         24.7660    -6.3000    -3.0460 hc         1 Y8C       0.045700
     46 H20         23.7920    -8.5760    -4.2450 hn         1 Y8C       0.312500
     47 H21         21.0910    -9.1220    -7.8530 hn         1 Y8C       0.479000
     48 H12         24.1490    -7.1900    -7.2290 ha         1 Y8C       0.124000
@<TRIPOS>BOND
     1     1     3 ar  
     2     1    20 ar  
     3     2     5 1   
     4     2    20 1   
     5     2    28 1   
     6     3    22 ar  
     7     3    29 1   
     8     4     5 2   
     9     4    19 1   
    10     4    30 1   
    11     5    31 1   
    12     6     7 1   
    13     6    23 1   
    14     6    32 1   
    15     6    33 1   
    16     7    21 1   
    17     7    24 1   
    18     7    34 1   
    19     8    13 1   
    20     8    21 1   
    21     8    35 1   
    22     8    36 1   
    23     9    14 1   
    24     9    25 1   
    25     9    37 1   
    26     9    38 1   
    27    10    15 ar  
    28    10    16 ar  
    29    10    48 1   
    30    11    16 ar  
    31    11    17 ar  
    32    11    39 1   
    33    12    19 ar  
    34    12    22 ar  
    35    12    23 1   
    36    13    23 1   
    37    13    40 1   
    38    13    41 1   
    39    14    24 1   
    40    14    26 2   
    41    15    18 ar  
    42    15    25 1   
    43    16    27 1   
    44    17    18 ar  
    45    17    42 1   
    46    18    43 1   
    47    19    20 ar  
    48    21    44 1   
    49    21    45 1   
    50    24    46 1   
    51    25    47 1   
@<TRIPOS>SUBSTRUCTURE
     1 Y8C         1 TEMP              0 ****  ****    0 ROOT
