@<TRIPOS>MOLECULE
Y8D
   12    12     1     0     0
SMALL
abcg2


@<TRIPOS>ATOM
      1 C02        -38.0200    27.4630   -10.8080 ca         1 Y8D       0.188000
      2 C03        -37.2230    26.4880   -10.2400 ca         1 Y8D      -0.156500
      3 C04        -37.0330    25.2940   -10.9210 ca         1 Y8D      -0.053000
      4 C05        -37.6450    25.1040   -12.1530 ca         1 Y8D       0.173000
      5 C07        -38.4330    26.0970   -12.7180 ca         1 Y8D      -0.053000
      6 C08        -38.6240    27.2920   -12.0380 ca         1 Y8D      -0.156500
      7 F01        -38.2160    28.6060   -10.1390 f          1 Y8D      -0.173000
      8 I06        -37.3720    23.2880   -13.1740 i          1 Y8D      -0.304000
      9 H1         -36.7550    26.6520    -9.2780 ha         1 Y8D       0.136000
     10 H2         -36.4140    24.5270   -10.4780 ha         1 Y8D       0.131000
     11 H3         -38.9060    25.9570   -13.6800 ha         1 Y8D       0.131000
     12 H4         -39.2370    28.0740   -12.4670 ha         1 Y8D       0.136000
@<TRIPOS>BOND
     1     1     2 ar  
     2     1     6 ar  
     3     1     7 1   
     4     2     3 ar  
     5     2     9 1   
     6     3     4 ar  
     7     3    10 1   
     8     4     5 ar  
     9     4     8 1   
    10     5     6 ar  
    11     5    11 1   
    12     6    12 1   
@<TRIPOS>SUBSTRUCTURE
     1 Y8D         1 TEMP              0 ****  ****    0 ROOT
