@<TRIPOS>MOLECULE
Y8D
   12    12     1     0     0
SMALL
No Charge or Current Charge


@<TRIPOS>ATOM
      1 C02        -38.0230    27.5030   -10.7870 ca         1 Y8D       0.188000
      2 C03        -37.2220    26.4970   -10.2220 ca         1 Y8D      -0.156500
      3 C04        -37.0300    25.2840   -10.9120 ca         1 Y8D      -0.053000
      4 C05        -37.6410    25.0860   -12.1630 ca         1 Y8D       0.173000
      5 C07        -38.4430    26.0950   -12.7270 ca         1 Y8D      -0.053000
      6 C08        -38.6350    27.3070   -12.0360 ca         1 Y8D      -0.156500
      7 F01        -38.2070    28.6650   -10.1240 f          1 Y8D      -0.173000
      8 I06        -37.3460    23.2220   -13.2260 i          1 Y8D      -0.304000
      9 H1         -36.7530    26.6570    -9.2540 ha         1 Y8D       0.136000
     10 H2         -36.4120    24.5010   -10.4820 ha         1 Y8D       0.131000
     11 H3         -38.9120    25.9350   -13.6940 ha         1 Y8D       0.131000
     12 H4         -39.2530    28.0910   -12.4660 ha         1 Y8D       0.136000
@<TRIPOS>BOND
     1     1     2 ar  
     2     1     6 ar  
     3     1     7 1   
     4     2     3 ar  
     5     2     9 1   
     6     3     4 ar  
     7     3    10 1   
     8     4     5 ar  
     9     4     8 1   
    10     5     6 ar  
    11     5    11 1   
    12     6    12 1   
@<TRIPOS>SUBSTRUCTURE
     1 Y8D         1 TEMP              0 ****  ****    0 ROOT
