@<TRIPOS>MOLECULE
Y8G
   21    21     1     0     0
SMALL
abcg2


@<TRIPOS>ATOM
      1 C01         24.3360   -23.7460    -0.9700 c3         1 Y8G      -0.089100
      2 C02         25.0480   -24.3200    -2.1880 c3         1 Y8G      -0.077400
      3 C03         24.7200   -23.5970    -3.4900 c3         1 Y8G      -0.069400
      4 C04         23.2460   -23.6450    -3.9130 c3         1 Y8G      -0.004100
      5 C05         22.7440   -25.0260    -4.1890 cc         1 Y8G      -0.195300
      6 C06         22.8470   -25.7430    -5.3450 cd         1 Y8G      -0.141000
      7 C07         22.2940   -27.0500    -5.2520 cd         1 Y8G      -0.130000
      8 C08         21.7740   -27.3120    -4.0220 cc         1 Y8G      -0.244000
      9 S09         21.9570   -25.9660    -2.9750 ss         1 Y8G       0.183000
     10 H1          24.6570   -24.2450    -0.0550 hc         1 Y8G       0.030700
     11 H2          24.5460   -22.6800    -0.8570 hc         1 Y8G       0.030700
     12 H3          23.2520   -23.8600    -1.0350 hc         1 Y8G       0.030700
     13 H4          24.8160   -25.3840    -2.2840 hc         1 Y8G       0.041200
     14 H5          26.1280   -24.2640    -2.0300 hc         1 Y8G       0.041200
     15 H6          25.3270   -24.0140    -4.2980 hc         1 Y8G       0.040700
     16 H7          25.0100   -22.5460    -3.3980 hc         1 Y8G       0.040700
     17 H8          23.1300   -23.0540    -4.8240 hc         1 Y8G       0.049200
     18 H9          22.6220   -23.1580    -3.1600 hc         1 Y8G       0.049200
     19 H10         23.3030   -25.3440    -6.2420 ha         1 Y8G       0.131000
     20 H11         22.2780   -27.7600    -6.0680 ha         1 Y8G       0.132000
     21 H12         21.2900   -28.2140    -3.6800 h4         1 Y8G       0.149000
@<TRIPOS>BOND
     1     1     2 1   
     2     1    10 1   
     3     1    11 1   
     4     1    12 1   
     5     2     3 1   
     6     2    13 1   
     7     2    14 1   
     8     3     4 1   
     9     3    15 1   
    10     3    16 1   
    11     4     5 1   
    12     4    17 1   
    13     4    18 1   
    14     5     6 2   
    15     5     9 1   
    16     6     7 1   
    17     6    19 1   
    18     7     8 2   
    19     7    20 1   
    20     8     9 1   
    21     8    21 1   
@<TRIPOS>SUBSTRUCTURE
     1 Y8G         1 TEMP              0 ****  ****    0 ROOT
