@<TRIPOS>MOLECULE
Y8G
   21    21     1     0     0
SMALL
No Charge or Current Charge


@<TRIPOS>ATOM
      1 C01         24.3830   -23.7710    -0.9440 c3         1 Y8G      -0.089100
      2 C02         25.0640   -24.3070    -2.2210 c3         1 Y8G      -0.077400
      3 C03         24.6900   -23.5410    -3.5150 c3         1 Y8G      -0.069400
      4 C04         23.1990   -23.6210    -3.9230 c3         1 Y8G      -0.004100
      5 C05         22.7210   -25.0260    -4.1820 cc         1 Y8G      -0.195300
      6 C06         22.9330   -25.7930    -5.3000 cd         1 Y8G      -0.141000
      7 C07         22.3400   -27.0810    -5.2270 cd         1 Y8G      -0.130000
      8 C08         21.6680   -27.3080    -4.0540 cc         1 Y8G      -0.244000
      9 S09         21.7530   -25.9030    -2.9960 ss         1 Y8G       0.183000
     10 H1          24.7520   -24.3100    -0.0630 hc         1 Y8G       0.030700
     11 H2          24.5980   -22.7050    -0.8080 hc         1 Y8G       0.030700
     12 H3          23.2960   -23.9050    -0.9890 hc         1 Y8G       0.030700
     13 H4          24.8280   -25.3710    -2.3390 hc         1 Y8G       0.041200
     14 H5          26.1510   -24.2450    -2.0850 hc         1 Y8G       0.041200
     15 H6          25.2990   -23.9320    -4.3400 hc         1 Y8G       0.040700
     16 H7          24.9690   -22.4870    -3.3980 hc         1 Y8G       0.040700
     17 H8          23.0550   -23.0200    -4.8290 hc         1 Y8G       0.049200
     18 H9          22.5810   -23.1480    -3.1500 hc         1 Y8G       0.049200
     19 H10         23.5030   -25.4480    -6.1580 ha         1 Y8G       0.131000
     20 H11         22.4130   -27.8160    -6.0240 ha         1 Y8G       0.132000
     21 H12         21.1290   -28.1900    -3.7310 h4         1 Y8G       0.149000
@<TRIPOS>BOND
     1     1     2 1   
     2     1    10 1   
     3     1    11 1   
     4     1    12 1   
     5     2     3 1   
     6     2    13 1   
     7     2    14 1   
     8     3     4 1   
     9     3    15 1   
    10     3    16 1   
    11     4     5 1   
    12     4    17 1   
    13     4    18 1   
    14     5     6 2   
    15     5     9 1   
    16     6     7 1   
    17     6    19 1   
    18     7     8 2   
    19     7    20 1   
    20     8     9 1   
    21     8    21 1   
@<TRIPOS>SUBSTRUCTURE
     1 Y8G         1 TEMP              0 ****  ****    0 ROOT
