@<TRIPOS>MOLECULE
Y8H
   54    57     1     0     0
SMALL
abcg2


@<TRIPOS>ATOM
      1 N1          18.3390    -4.9450     0.0910 nb         1 Y8H      -0.228000
      2 N3          17.6140    -5.3950    -2.1540 na         1 Y8H      -0.327400
      3 C4          19.4330    -5.0140     0.8370 ca         1 Y8H       0.171900
      4 C5          19.4890    -6.2290    -3.0600 cc         1 Y8H      -0.205200
      5 C6          18.1910    -5.8800    -3.3100 cd         1 Y8H      -0.177100
      6 C7          23.1220    -6.3200    -0.0500 c3         1 Y8H       0.222100
      7 C8          22.2820    -7.4550    -2.1170 c3         1 Y8H       0.214500
      8 C10         22.8800    -9.8930    -2.6680 c3         1 Y8H      -0.068400
      9 C13         23.1130    -6.7510    -3.2030 c3         1 Y8H       0.083000
     10 C15         23.0800    -8.6760    -6.5080 c3         1 Y8H       0.137800
     11 C17         24.0280    -6.5430    -8.2330 ca         1 Y8H      -0.174500
     12 C20         22.5010    -5.8580   -10.4340 ca         1 Y8H       0.174500
     13 C21         22.1030    -6.9210    -9.6500 ca         1 Y8H      -0.174500
     14 C1          20.8150    -6.0100    -0.7420 ca         1 Y8H       0.431900
     15 C11         24.1360    -9.9300    -3.5460 c3         1 Y8H      -0.101400
     16 C12         24.5880    -8.5520    -4.0480 c3         1 Y8H       0.100000
     17 C16         22.8740    -7.2860    -8.5310 ca         1 Y8H       0.339000
     18 C18         24.3810    -5.4850    -9.0570 ca         1 Y8H       0.174500
     19 C19         23.6440    -5.1110   -10.1690 ca         1 Y8H      -0.144000
     20 C2          19.7370    -5.9500    -1.6690 ca         1 Y8H      -0.243800
     21 C3          18.5360    -5.4110    -1.1520 ca         1 Y8H       0.140500
     22 C9          22.8600    -8.7860    -1.6040 c3         1 Y8H      -0.091400
     23 N2          20.6280    -5.5060     0.4960 nb         1 Y8H      -0.301000
     24 N4          22.0450    -6.5170    -1.0140 nh         1 Y8H      -0.789300
     25 N5          23.4840    -7.6240    -4.3120 n          1 Y8H      -0.400800
     26 N6          22.4970    -8.3800    -7.7890 nu         1 Y8H      -0.934200
     27 O1          21.7140    -6.9440    -5.5590 o          1 Y8H      -0.605100
     28 CL1         25.8240    -4.5710    -8.6650 cl         1 Y8H      -0.209500
     29 H1          16.6710    -5.0520    -2.0630 hn         1 Y8H       0.361000
     30 H2          19.3540    -4.6320     1.8500 h5         1 Y8H       0.043100
     31 H3          20.1730    -6.6050    -3.8020 ha         1 Y8H       0.226000
     32 H4          17.6230    -5.9320    -4.2240 h4         1 Y8H       0.219000
     33 H5          23.1110    -5.2950     0.3130 h1         1 Y8H       0.042367
     34 H6          23.0350    -6.9890     0.8100 h1         1 Y8H       0.042367
     35 H7          24.0730    -6.5070    -0.5420 h1         1 Y8H       0.042367
     36 H8          21.3140    -7.7010    -2.5410 h1         1 Y8H       0.078700
     37 H9          21.9940    -9.7920    -3.3020 hc         1 Y8H       0.045700
     38 H10         22.7870   -10.8610    -2.1740 hc         1 Y8H       0.045700
     39 H11         24.0340    -6.3610    -2.7690 h1         1 Y8H       0.072200
     40 H12         22.5410    -5.9150    -3.5960 h1         1 Y8H       0.072200
     41 H13         22.7160    -9.6540    -6.1890 h1         1 Y8H       0.072200
     42 H14         24.1600    -8.7660    -6.6070 h1         1 Y8H       0.072200
     43 H15         24.6410    -6.7730    -7.3760 ha         1 Y8H       0.130500
     44 H16         21.2080    -7.4780    -9.8920 ha         1 Y8H       0.130500
     45 H17         23.9560   -10.5970    -4.3910 hc         1 Y8H       0.047200
     46 H18         24.9690   -10.3600    -2.9830 hc         1 Y8H       0.047200
     47 H19         25.2150    -8.6520    -4.9320 h1         1 Y8H       0.053700
     48 H20         25.2030    -8.0700    -3.2890 h1         1 Y8H       0.053700
     49 H21         23.9380    -4.2820   -10.7940 ha         1 Y8H       0.147000
     50 H22         22.2250    -9.1010    -0.7740 hc         1 Y8H       0.051700
     51 H23         23.8640    -8.6470    -1.1950 hc         1 Y8H       0.051700
     52 H24         21.5370    -8.6640    -7.9040 hn         1 Y8H       0.484000
     53 C14         22.7040    -7.6630    -5.4140 c          1 Y8H       0.561100
     54 CL2         21.5270    -5.4260   -11.8260 cl         1 Y8H      -0.209500
@<TRIPOS>BOND
     1     1     3 ar  
     2     1    21 ar  
     3     2     5 1   
     4     2    21 1   
     5     2    29 1   
     6     3    23 ar  
     7     3    30 1   
     8     4     5 2   
     9     4    20 1   
    10     4    31 1   
    11     5    32 1   
    12     6    24 1   
    13     6    33 1   
    14     6    34 1   
    15     6    35 1   
    16     7     9 1   
    17     7    22 1   
    18     7    24 1   
    19     7    36 1   
    20     8    15 1   
    21     8    22 1   
    22     8    37 1   
    23     8    38 1   
    24     9    25 1   
    25     9    39 1   
    26     9    40 1   
    27    10    26 1   
    28    10    41 1   
    29    10    42 1   
    30    10    53 1   
    31    11    17 ar  
    32    11    18 ar  
    33    11    43 1   
    34    12    13 ar  
    35    12    19 ar  
    36    12    54 1   
    37    13    17 ar  
    38    13    44 1   
    39    14    20 ar  
    40    14    23 ar  
    41    14    24 1   
    42    15    16 1   
    43    15    45 1   
    44    15    46 1   
    45    16    25 1   
    46    16    47 1   
    47    16    48 1   
    48    17    26 1   
    49    18    19 ar  
    50    18    28 1   
    51    19    49 1   
    52    20    21 ar  
    53    22    50 1   
    54    22    51 1   
    55    25    53 1   
    56    26    52 1   
    57    27    53 2   
@<TRIPOS>SUBSTRUCTURE
     1 Y8H         1 TEMP              0 ****  ****    0 ROOT
