@<TRIPOS>MOLECULE
Y8H
   54    57     1     0     0
SMALL
No Charge or Current Charge


@<TRIPOS>ATOM
      1 N1          18.0320    -5.5070    -0.0700 nb         1 Y8H      -0.228000
      2 N3          17.7450    -5.0360    -2.4780 na         1 Y8H      -0.327400
      3 C4          18.9670    -5.8830     0.8330 ca         1 Y8H       0.171900
      4 C5          19.8900    -5.4550    -3.1020 cc         1 Y8H      -0.205200
      5 C6          18.6480    -5.0590    -3.5690 cd         1 Y8H      -0.177100
      6 C7          23.0670    -6.0930     0.0500 c3         1 Y8H       0.222100
      7 C8          22.3660    -7.3820    -2.0300 c3         1 Y8H       0.214500
      8 C10         22.7220    -9.9380    -2.4630 c3         1 Y8H      -0.068400
      9 C13         23.4300    -6.8480    -3.0280 c3         1 Y8H       0.083000
     10 C15         23.5130    -8.6550    -6.5520 c3         1 Y8H       0.137800
     11 C17         24.0470    -6.5320    -8.6980 ca         1 Y8H      -0.174500
     12 C20         21.8890    -5.9020   -10.3680 ca         1 Y8H       0.174500
     13 C21         21.8230    -7.0270    -9.5340 ca         1 Y8H      -0.174500
     14 C1          20.6730    -6.0850    -0.7020 ca         1 Y8H       0.431900
     15 C11         24.0390   -10.1370    -3.2580 c3         1 Y8H      -0.101400
     16 C12         24.6970    -8.8620    -3.8310 c3         1 Y8H       0.100000
     17 C16         22.9000    -7.3430    -8.6930 ca         1 Y8H       0.339000
     18 C18         24.1090    -5.4080    -9.5340 ca         1 Y8H       0.174500
     19 C19         23.0310    -5.0890   -10.3700 ca         1 Y8H      -0.144000
     20 C2          19.7500    -5.6870    -1.6910 ca         1 Y8H      -0.243800
     21 C3          18.4500    -5.4110    -1.3450 ca         1 Y8H       0.140500
     22 C9          22.7170    -8.7770    -1.4340 c3         1 Y8H      -0.091400
     23 N2          20.2650    -6.1730     0.5830 nb         1 Y8H      -0.301000
     24 N4          22.0270    -6.3970    -0.9680 nh         1 Y8H      -0.789300
     25 N5          23.7360    -7.7820    -4.1430 n          1 Y8H      -0.400800
     26 N6          22.8120    -8.4670    -7.8690 nu         1 Y8H      -0.934200
     27 O1          22.3760    -6.6850    -5.6290 o          1 Y8H      -0.605100
     28 Cl1         25.5470    -4.3960    -9.5340 cl         1 Y8H      -0.209500
     29 H1          16.7620    -4.7820    -2.5080 hn         1 Y8H       0.361000
     30 H2          18.6410    -5.9600     1.8690 h5         1 Y8H       0.043100
     31 H3          20.7880    -5.5470    -3.7090 ha         1 Y8H       0.226000
     32 H4          18.3460    -4.7900    -4.5800 h4         1 Y8H       0.219000
     33 H5          22.8940    -5.1010     0.4880 h1         1 Y8H       0.042367
     34 H6          23.0490    -6.8400     0.8550 h1         1 Y8H       0.042367
     35 H7          24.0710    -6.0870    -0.3920 h1         1 Y8H       0.042367
     36 H8          21.4620    -7.5480    -2.6320 h1         1 Y8H       0.078700
     37 H9          21.8920    -9.7980    -3.1670 hc         1 Y8H       0.045700
     38 H10         22.5080   -10.8730    -1.9320 hc         1 Y8H       0.045700
     39 H11         24.3590    -6.6440    -2.4830 h1         1 Y8H       0.072200
     40 H12         23.0920    -5.8840    -3.4260 h1         1 Y8H       0.072200
     41 H13         23.2790    -9.6490    -6.1500 h1         1 Y8H       0.072200
     42 H14         24.6000    -8.6160    -6.7000 h1         1 Y8H       0.072200
     43 H15         24.8930    -6.7680    -8.0620 ha         1 Y8H       0.130500
     44 H16         20.9330    -7.6480    -9.5400 ha         1 Y8H       0.130500
     45 H17         23.8320   -10.8260    -4.0850 hc         1 Y8H       0.047200
     46 H18         24.7730   -10.6450    -2.6190 hc         1 Y8H       0.047200
     47 H19         25.3090    -9.1160    -4.7040 h1         1 Y8H       0.053700
     48 H20         25.3980    -8.4820    -3.0760 h1         1 Y8H       0.053700
     49 H21         23.0800    -4.2180   -11.0170 ha         1 Y8H       0.147000
     50 H22         21.9620    -9.0140    -0.6740 hc         1 Y8H       0.051700
     51 H23         23.6810    -8.7390    -0.9120 hc         1 Y8H       0.051700
     52 H24         21.9540    -9.0100    -7.9960 hn         1 Y8H       0.484000
     53 C14         23.1540    -7.6130    -5.4260 c          1 Y8H       0.561100
     54 Cl2         20.5320    -5.5090   -11.4170 cl         1 Y8H      -0.209500
@<TRIPOS>BOND
     1     1     3 ar  
     2     1    21 ar  
     3     2     5 1   
     4     2    21 1   
     5     2    29 1   
     6     3    23 ar  
     7     3    30 1   
     8     4     5 2   
     9     4    20 1   
    10     4    31 1   
    11     5    32 1   
    12     6    24 1   
    13     6    33 1   
    14     6    34 1   
    15     6    35 1   
    16     7     9 1   
    17     7    22 1   
    18     7    24 1   
    19     7    36 1   
    20     8    15 1   
    21     8    22 1   
    22     8    37 1   
    23     8    38 1   
    24     9    25 1   
    25     9    39 1   
    26     9    40 1   
    27    10    26 1   
    28    10    41 1   
    29    10    42 1   
    30    10    53 1   
    31    11    17 ar  
    32    11    18 ar  
    33    11    43 1   
    34    12    13 ar  
    35    12    19 ar  
    36    12    54 1   
    37    13    17 ar  
    38    13    44 1   
    39    14    20 ar  
    40    14    23 ar  
    41    14    24 1   
    42    15    16 1   
    43    15    45 1   
    44    15    46 1   
    45    16    25 1   
    46    16    47 1   
    47    16    48 1   
    48    17    26 1   
    49    18    19 ar  
    50    18    28 1   
    51    19    49 1   
    52    20    21 ar  
    53    22    50 1   
    54    22    51 1   
    55    25    53 1   
    56    26    52 1   
    57    27    53 2   
@<TRIPOS>SUBSTRUCTURE
     1 Y8H         1 TEMP              0 ****  ****    0 ROOT
