@<TRIPOS>MOLECULE
Y8I
   13    13     1     0     0
SMALL
abcg2


@<TRIPOS>ATOM
      1 BR1          3.0150     0.5290     0.1230 br         1 Y8I      -0.086100
      2 C02          1.3510    -0.3520     0.0180 ca         1 Y8I      -0.063900
      3 C03          0.1890     0.3950    -0.0690 ca         1 Y8I      -0.014000
      4 C04         -1.0320    -0.2610    -0.1460 ca         1 Y8I      -0.123900
      5 BR5         -2.6090     0.7700    -0.2680 br         1 Y8I      -0.092100
      6 C06         -1.1130    -1.6550    -0.1390 ca         1 Y8I       0.188100
      7 O07         -2.2480    -2.3580    -0.2140 oh         1 Y8I      -0.522100
      8 C08          0.0770    -2.3760    -0.0490 ca         1 Y8I      -0.151000
      9 C09          1.3010    -1.7390     0.0290 ca         1 Y8I      -0.032000
     10 H1           0.2230     1.4760    -0.0780 ha         1 Y8I       0.144000
     11 H2          -3.0310    -1.7940    -0.2560 ho         1 Y8I       0.484000
     12 H3           0.0330    -3.4580    -0.0410 ha         1 Y8I       0.137000
     13 H4           2.2020    -2.3320     0.0980 ha         1 Y8I       0.135000
@<TRIPOS>BOND
     1     1     2 1   
     2     2     3 ar  
     3     2     9 ar  
     4     3     4 ar  
     5     3    10 1   
     6     4     5 1   
     7     4     6 ar  
     8     6     7 1   
     9     6     8 ar  
    10     7    11 1   
    11     8     9 ar  
    12     8    12 1   
    13     9    13 1   
@<TRIPOS>SUBSTRUCTURE
     1 Y8I         1 TEMP              0 ****  ****    0 ROOT
