@<TRIPOS>MOLECULE
Y8I
   13    13     1     0     0
SMALL
No Charge or Current Charge


@<TRIPOS>ATOM
      1 Br1          3.0450     0.5560     0.1240 br         1 Y8I      -0.086100
      2 C02          1.3640    -0.3510     0.0190 ca         1 Y8I      -0.063900
      3 C03          0.1730     0.3910    -0.0700 ca         1 Y8I      -0.014000
      4 C04         -1.0640    -0.2770    -0.1480 ca         1 Y8I      -0.123900
      5 Br5         -2.6770     0.7560    -0.2690 br         1 Y8I      -0.092100
      6 C06         -1.1040    -1.6850    -0.1360 ca         1 Y8I       0.188100
      7 O07         -2.2950    -2.3430    -0.2110 oh         1 Y8I      -0.522100
      8 C08          0.0880    -2.4210    -0.0470 ca         1 Y8I      -0.151000
      9 C09          1.3250    -1.7560     0.0310 ca         1 Y8I      -0.032000
     10 H1           0.2080     1.4780    -0.0790 ha         1 Y8I       0.144000
     11 H2          -3.0050    -1.6670    -0.2660 ho         1 Y8I       0.484000
     12 H3           0.0540    -3.5080    -0.0380 ha         1 Y8I       0.137000
     13 H4           2.2480    -2.3280     0.1000 ha         1 Y8I       0.135000
@<TRIPOS>BOND
     1     1     2 1   
     2     2     3 ar  
     3     2     9 ar  
     4     3     4 ar  
     5     3    10 1   
     6     4     5 1   
     7     4     6 ar  
     8     6     7 1   
     9     6     8 ar  
    10     7    11 1   
    11     8     9 ar  
    12     8    12 1   
    13     9    13 1   
@<TRIPOS>SUBSTRUCTURE
     1 Y8I         1 TEMP              0 ****  ****    0 ROOT
