@<TRIPOS>MOLECULE
Y8J
   23    23     1     0     0
SMALL
bcc


@<TRIPOS>ATOM
      1 C10        -33.9830     7.1560     4.9110 ca         1 Y8J       0.401200
      2 C01        -33.3870     9.7910     0.3670 c3         1 Y8J      -0.089100
      3 C02        -32.8560     8.7590     1.3520 c3         1 Y8J      -0.076400
      4 C03        -32.7020     9.3210     2.7580 c3         1 Y8J      -0.071400
      5 C04        -32.0830     8.3400     3.7590 c3         1 Y8J      -0.027100
      6 C05        -32.9310     7.1240     3.9970 ca         1 Y8J      -0.191600
      7 C06        -32.7340     5.9310     3.3130 ca         1 Y8J      -0.092000
      8 C07        -33.5720     4.8540     3.5590 ca         1 Y8J      -0.246300
      9 C08        -34.5890     5.0060     4.4890 ca         1 Y8J       0.395200
     10 N09        -34.7930     6.1350     5.1580 nb         1 Y8J      -0.664000
     11 H1         -34.1690     8.0650     5.4770 h4         1 Y8J       0.016100
     12 H2         -33.5000     9.3700    -0.6320 hc         1 Y8J       0.032033
     13 H3         -34.3620    10.1690     0.6780 hc         1 Y8J       0.032033
     14 H4         -32.7130    10.6470     0.2910 hc         1 Y8J       0.032033
     15 H5         -33.5250     7.8940     1.3680 hc         1 Y8J       0.038700
     16 H6         -31.8870     8.3840     1.0060 hc         1 Y8J       0.038700
     17 H7         -32.0690    10.2130     2.7210 hc         1 Y8J       0.041200
     18 H8         -33.6760     9.6540     3.1300 hc         1 Y8J       0.041200
     19 H9         -31.0980     8.0310     3.3990 hc         1 Y8J       0.048200
     20 H10        -31.9210     8.8580     4.7070 hc         1 Y8J       0.048200
     21 H11        -31.9270     5.8420     2.5950 ha         1 Y8J       0.135000
     22 H12        -33.4420     3.9130     3.0420 ha         1 Y8J       0.140000
     23 H13        -35.2620     4.1840     4.7050 h4         1 Y8J       0.018100
@<TRIPOS>BOND
     1     1     6 ar  
     2     1    10 ar  
     3     1    11 1   
     4     2     3 1   
     5     2    12 1   
     6     2    13 1   
     7     2    14 1   
     8     3     4 1   
     9     3    15 1   
    10     3    16 1   
    11     4     5 1   
    12     4    17 1   
    13     4    18 1   
    14     5     6 1   
    15     5    19 1   
    16     5    20 1   
    17     6     7 ar  
    18     7     8 ar  
    19     7    21 1   
    20     8     9 ar  
    21     8    22 1   
    22     9    10 ar  
    23     9    23 1   
@<TRIPOS>SUBSTRUCTURE
     1 Y8J         1 TEMP              0 ****  ****    0 ROOT
