@<TRIPOS>MOLECULE
Y8J
   23    23     1     0     0
SMALL
No Charge or Current Charge


@<TRIPOS>ATOM
      1 C10        -34.0910     7.2200     4.7450 ca         1 Y8J       0.335900
      2 C01        -33.4730     9.8720     0.4010 c3         1 Y8J      -0.089100
      3 C02        -32.8960     8.8020     1.3480 c3         1 Y8J      -0.076400
      4 C03        -32.6280     9.3380     2.7730 c3         1 Y8J      -0.071400
      5 C04        -32.0100     8.2890     3.7260 c3         1 Y8J      -0.027100
      6 C05        -32.9210     7.0900     3.9670 ca         1 Y8J      -0.126300
      7 C06        -32.6170     5.8310     3.4170 ca         1 Y8J      -0.074000
      8 C07        -33.4950     4.7650     3.6700 ca         1 Y8J      -0.163000
      9 C08        -34.6380     4.9870     4.4580 ca         1 Y8J       0.329900
     10 N09        -34.9390     6.1930     4.9920 nb         1 Y8J      -0.664000
     11 H1         -34.3590     8.1790     5.1870 h4         1 Y8J       0.016100
     12 H2         -33.6470     9.4480    -0.5940 hc         1 Y8J       0.032033
     13 H3         -34.4280    10.2540     0.7830 hc         1 Y8J       0.032033
     14 H4         -32.7790    10.7150     0.2980 hc         1 Y8J       0.032033
     15 H5         -33.5980     7.9600     1.3970 hc         1 Y8J       0.038700
     16 H6         -31.9620     8.4160     0.9220 hc         1 Y8J       0.038700
     17 H7         -31.9470    10.1960     2.7100 hc         1 Y8J       0.041200
     18 H8         -33.5650     9.7120     3.2040 hc         1 Y8J       0.041200
     19 H9         -31.0440     7.9640     3.3210 hc         1 Y8J       0.048200
     20 H10        -31.7870     8.7760     4.6840 hc         1 Y8J       0.048200
     21 H11        -31.7270     5.6830     2.8090 ha         1 Y8J       0.117000
     22 H12        -33.2990     3.7760     3.2640 ha         1 Y8J       0.122000
     23 H13        -35.3330     4.1750     4.6670 h4         1 Y8J       0.018100
@<TRIPOS>BOND
     1     1     6 ar  
     2     1    10 ar  
     3     1    11 1   
     4     2     3 1   
     5     2    12 1   
     6     2    13 1   
     7     2    14 1   
     8     3     4 1   
     9     3    15 1   
    10     3    16 1   
    11     4     5 1   
    12     4    17 1   
    13     4    18 1   
    14     5     6 1   
    15     5    19 1   
    16     5    20 1   
    17     6     7 ar  
    18     7     8 ar  
    19     7    21 1   
    20     8     9 ar  
    21     8    22 1   
    22     9    10 ar  
    23     9    23 1   
@<TRIPOS>SUBSTRUCTURE
     1 Y8J         1 TEMP              0 ****  ****    0 ROOT
