@<TRIPOS>MOLECULE
Y8M
   33    34     1     0     0
SMALL
No Charge or Current Charge


@<TRIPOS>ATOM
      1 C10        -37.0310    24.9310   -10.8560 ca         1 Y8M      -0.110500
      2 C13        -38.5470    26.8200   -12.2780 ca         1 Y8M      -0.110500
      3 C15        -33.2960    22.4100   -12.8850 ca         1 Y8M      -0.071000
      4 C02        -32.3100    22.4320   -10.6600 ca         1 Y8M       0.279000
      5 C03        -32.8620    23.7000   -10.4310 ca         1 Y8M      -0.175000
      6 C04        -33.6320    24.3270   -11.4270 ca         1 Y8M      -0.071000
      7 C05        -33.8580    23.6830   -12.6590 ca         1 Y8M      -0.117300
      8 C06        -34.6990    24.3580   -13.7390 c3         1 Y8M      -0.023100
      9 C07        -36.0020    23.5930   -14.0760 c3         1 Y8M      -0.065400
     10 C08        -36.9500    23.3760   -12.8720 c3         1 Y8M      -0.032100
     11 C09        -37.3860    24.6730   -12.1950 ca         1 Y8M      -0.072300
     12 C11        -37.4260    26.1280   -10.2340 ca         1 Y8M      -0.110500
     13 C12        -38.1830    27.0730   -10.9450 ca         1 Y8M      -0.114000
     14 C14        -38.1500    25.6240   -12.9010 ca         1 Y8M      -0.110500
     15 C16        -32.5260    21.7890   -11.8860 ca         1 Y8M      -0.175000
     16 H1         -36.4440    24.2060   -10.2960 ha         1 Y8M       0.110500
     17 H2         -39.1350    27.5500   -12.8300 ha         1 Y8M       0.110000
     18 H3         -33.4560    21.9030   -13.8340 ha         1 Y8M       0.109000
     19 H4         -32.6970    24.2060    -9.4840 ha         1 Y8M       0.110000
     20 H5         -34.0550    25.3110   -11.2370 ha         1 Y8M       0.109000
     21 H6         -34.1050    24.4540   -14.6560 hc         1 Y8M       0.048200
     22 H7         -34.9550    25.3830   -13.4430 hc         1 Y8M       0.048200
     23 H8         -36.5370    24.1400   -14.8620 hc         1 Y8M       0.038700
     24 H9         -35.7470    22.6160   -14.5040 hc         1 Y8M       0.038700
     25 H10        -37.8370    22.8330   -13.2210 hc         1 Y8M       0.049200
     26 H11        -36.4610    22.7110   -12.1490 hc         1 Y8M       0.049200
     27 H12        -37.1450    26.3220    -9.2010 ha         1 Y8M       0.110000
     28 H13        -38.4900    28.0000   -10.4640 ha         1 Y8M       0.111000
     29 H14        -38.4380    25.4360   -13.9330 ha         1 Y8M       0.110500
     30 H15        -32.0990    20.8070   -12.0720 ha         1 Y8M       0.110000
     31 H16        -31.5160    22.2280    -8.7550 hn         1 Y8M       0.442000
     32 H17        -31.2740    20.8540    -9.8000 hn         1 Y8M       0.442000
     33 N01        -31.5610    21.8250    -9.6890 nv         1 Y8M      -1.066000
@<TRIPOS>BOND
     1     1    11 ar  
     2     1    12 ar  
     3     1    16 1   
     4     2    13 ar  
     5     2    14 ar  
     6     2    17 1   
     7     3     7 ar  
     8     3    15 ar  
     9     3    18 1   
    10     4     5 ar  
    11     4    15 ar  
    12     4    33 1   
    13     5     6 ar  
    14     5    19 1   
    15     6     7 ar  
    16     6    20 1   
    17     7     8 1   
    18     8     9 1   
    19     8    21 1   
    20     8    22 1   
    21     9    10 1   
    22     9    23 1   
    23     9    24 1   
    24    10    11 1   
    25    10    25 1   
    26    10    26 1   
    27    11    14 ar  
    28    12    13 ar  
    29    12    27 1   
    30    13    28 1   
    31    14    29 1   
    32    15    30 1   
    33    31    33 1   
    34    32    33 1   
@<TRIPOS>SUBSTRUCTURE
     1 Y8M         1 TEMP              0 ****  ****    0 ROOT
