@<TRIPOS>MOLECULE
Y8M
   33    34     1     0     0
SMALL
bcc


@<TRIPOS>ATOM
      1 C10        -37.0860    25.1420   -10.8660 ca         1 Y8M      -0.128500
      2 C13        -38.6970    26.7790   -12.4110 ca         1 Y8M      -0.128500
      3 C15        -33.1970    22.4650   -12.9200 ca         1 Y8M      -0.089000
      4 C02        -32.1900    22.3090   -10.7240 ca         1 Y8M       0.140600
      5 C03        -32.8010    23.5240   -10.4030 ca         1 Y8M      -0.193000
      6 C04        -33.5920    24.1870   -11.3310 ca         1 Y8M      -0.089000
      7 C05        -33.8120    23.6760   -12.6070 ca         1 Y8M      -0.117300
      8 C06        -34.6910    24.3810   -13.6050 c3         1 Y8M      -0.023100
      9 C07        -35.9820    23.6250   -13.9240 c3         1 Y8M      -0.065400
     10 C08        -36.9160    23.4390   -12.7260 c3         1 Y8M      -0.032100
     11 C09        -37.4220    24.7360   -12.1550 ca         1 Y8M      -0.072300
     12 C11        -37.5440    26.3510   -10.3530 ca         1 Y8M      -0.128500
     13 C12        -38.3490    27.1750   -11.1250 ca         1 Y8M      -0.132000
     14 C14        -38.2380    25.5730   -12.9180 ca         1 Y8M      -0.128500
     15 C16        -32.4030    21.7910   -12.0070 ca         1 Y8M      -0.193000
     16 H1         -36.4590    24.5050   -10.2550 ha         1 Y8M       0.128500
     17 H2         -39.3300    27.4130   -13.0200 ha         1 Y8M       0.128000
     18 H3         -33.3390    22.0320   -13.9050 ha         1 Y8M       0.127000
     19 H4         -32.6540    23.9540    -9.4180 ha         1 Y8M       0.128000
     20 H5         -34.0510    25.1270   -11.0480 ha         1 Y8M       0.127000
     21 H6         -34.1430    24.5280   -14.5400 hc         1 Y8M       0.048200
     22 H7         -34.9340    25.3820   -13.2360 hc         1 Y8M       0.048200
     23 H8         -36.5150    24.1520   -14.7200 hc         1 Y8M       0.038700
     24 H9         -35.7340    22.6400   -14.3300 hc         1 Y8M       0.038700
     25 H10        -37.7650    22.8270   -13.0440 hc         1 Y8M       0.049200
     26 H11        -36.4040    22.8700   -11.9460 hc         1 Y8M       0.049200
     27 H12        -37.2700    26.6450    -9.3480 ha         1 Y8M       0.128000
     28 H13        -38.7060    28.1170   -10.7290 ha         1 Y8M       0.129000
     29 H14        -38.5180    25.2750   -13.9220 ha         1 Y8M       0.128500
     30 H15        -31.9380    20.8520   -12.2890 ha         1 Y8M       0.128000
     31 H16        -31.5220    21.8830    -8.8560 hn         1 Y8M       0.386800
     32 H17        -31.2540    20.6760    -9.9670 hn         1 Y8M       0.386800
     33 N01        -31.3530    21.6690    -9.8270 nv         1 Y8M      -0.817200
@<TRIPOS>BOND
     1     1    11 ar  
     2     1    12 ar  
     3     1    16 1   
     4     2    13 ar  
     5     2    14 ar  
     6     2    17 1   
     7     3     7 ar  
     8     3    15 ar  
     9     3    18 1   
    10     4     5 ar  
    11     4    15 ar  
    12     4    33 1   
    13     5     6 ar  
    14     5    19 1   
    15     6     7 ar  
    16     6    20 1   
    17     7     8 1   
    18     8     9 1   
    19     8    21 1   
    20     8    22 1   
    21     9    10 1   
    22     9    23 1   
    23     9    24 1   
    24    10    11 1   
    25    10    25 1   
    26    10    26 1   
    27    11    14 ar  
    28    12    13 ar  
    29    12    27 1   
    30    13    28 1   
    31    14    29 1   
    32    15    30 1   
    33    31    33 1   
    34    32    33 1   
@<TRIPOS>SUBSTRUCTURE
     1 Y8M         1 TEMP              0 ****  ****    0 ROOT
