@<TRIPOS>MOLECULE
Y8O
   72    74     1     0     0
SMALL
abcg2


@<TRIPOS>ATOM
      1 C10         21.3540    18.4950    23.8280 c3         1 Y8O      -0.090100
      2 C02         19.1620    17.8710    27.5100 c          1 Y8O       0.595100
      3 C05         19.2200    16.6190    24.6800 c          1 Y8O       0.589100
      4 C06         19.9540    16.4570    23.3480 c3         1 Y8O       0.046700
      5 C07         20.4770    17.8130    22.7710 c3         1 Y8O      -0.050000
      6 C08         21.3260    17.5000    21.5330 c3         1 Y8O      -0.090100
      7 C09         19.3290    18.7470    22.3710 c3         1 Y8O      -0.090100
      8 N04         19.8460    16.2320    25.8050 n          1 Y8O      -0.400800
      9 N11         19.0350    15.7870    22.4420 ns         1 Y8O      -0.479900
     10 C03         19.1650    16.3950    27.0930 c5         1 Y8O       0.060700
     11 C12         19.3410    14.6710    21.7760 c          1 Y8O       0.552100
     12 C13         18.2070    14.0690    20.9320 c3         1 Y8O       0.090300
     13 C18         21.1650    15.5830    25.9250 c5         1 Y8O       0.137000
     14 C19         21.2100    15.0740    27.3450 cx         1 Y8O      -0.126700
     15 C20         19.9820    15.5740    28.0670 cx         1 Y8O      -0.124700
     16 C21         20.1600    14.0970    27.8140 cx         1 Y8O      -0.079000
     17 C22         19.2830    13.3410    26.8390 c3         1 Y8O      -0.065100
     18 C23         20.5340    13.2800    29.0330 c3         1 Y8O      -0.065100
     19 C25         17.7190    19.7240    28.2900 c3         1 Y8O       0.050400
     20 C26         16.9400    20.4670    27.1920 c3         1 Y8O      -0.078400
     21 C27         17.7450    20.6300    25.9000 c6         1 Y8O      -0.136700
     22 C28         18.8610    21.6700    26.0340 c6         1 Y8O      -0.074400
     23 C29         19.5040    21.9530    24.6830 c6         1 Y8O      -0.093400
     24 C30         18.4690    22.5120    23.7240 c6         1 Y8O       0.116000
     25 C32         16.8190    20.8810    24.7120 c          1 Y8O       0.564000
     26 C34         16.9470    19.7480    29.5840 c2         1 Y8O       0.408200
     27 F14         17.0810    14.8490    20.9430 f          1 Y8O      -0.110000
     28 F15         18.6260    13.9900    19.6330 f          1 Y8O      -0.110000
     29 N31         17.2480    21.7080    23.7420 ns         1 Y8O      -0.511900
     30 N35         17.2850    20.5030    30.5410 n2         1 Y8O      -0.732100
     31 O01         20.1950    18.5360    27.4980 o          1 Y8O      -0.602100
     32 O16         20.4200    14.0910    21.7860 o          1 Y8O      -0.582100
     33 O17         18.0800    17.0900    24.7000 o          1 Y8O      -0.616100
     34 O33         15.7320    20.2990    24.6160 o          1 Y8O      -0.583000
     35 H103        20.7860    18.7520    24.7230 hc         1 Y8O       0.042478
     36 H101        22.1880    17.8560    24.1230 hc         1 Y8O       0.042478
     37 H102        21.7680    19.4180    23.4190 hc         1 Y8O       0.042478
     38 H061        20.8100    15.8000    23.4580 h1         1 Y8O       0.087700
     39 H082        22.1670    16.8510    21.7860 hc         1 Y8O       0.042478
     40 H081        20.7330    17.0090    20.7600 hc         1 Y8O       0.042478
     41 H083        21.7210    18.4270    21.1150 hc         1 Y8O       0.042478
     42 H092        18.6970    18.9950    23.2210 hc         1 Y8O       0.042478
     43 H091        19.7430    19.6740    21.9700 hc         1 Y8O       0.042478
     44 H093        18.7040    18.3000    21.5960 hc         1 Y8O       0.042478
     45 H111        18.0940    16.1470    22.3840 hn         1 Y8O       0.352500
     46 H031        18.1390    16.0380    26.9950 h1         1 Y8O       0.082700
     47 H131        17.9420    13.0690    21.2760 h2         1 Y8O       0.085700
     48 H181        21.2570    14.7840    25.1890 h1         1 Y8O       0.062700
     49 H182        21.9670    16.3020    25.7570 h1         1 Y8O       0.062700
     50 H191        22.1760    15.0670    27.8310 hc         1 Y8O       0.103700
     51 H201        20.0380    15.9340    29.0860 hc         1 Y8O       0.106700
     52 H223        18.3620    13.0230    27.3350 hc         1 Y8O       0.042200
     53 H222        19.0040    13.9200    25.9610 hc         1 Y8O       0.042200
     54 H221        19.8000    12.4420    26.4930 hc         1 Y8O       0.042200
     55 H231        21.1700    13.8480    29.7140 hc         1 Y8O       0.042200
     56 H233        19.6380    12.9730    29.5810 hc         1 Y8O       0.042200
     57 H232        21.0730    12.3760    28.7380 hc         1 Y8O       0.042200
     58 H251        18.6870    20.1900    28.4590 h1         1 Y8O       0.104700
     59 H261        16.6550    21.4510    27.5720 hc         1 Y8O       0.065200
     60 H262        16.0210    19.9160    26.9850 hc         1 Y8O       0.065200
     61 H271        18.2010    19.6620    25.6600 hc         1 Y8O       0.086700
     62 H281        19.6080    21.3100    26.7420 hc         1 Y8O       0.055700
     63 H282        18.4450    22.5950    26.4450 hc         1 Y8O       0.055700
     64 H292        19.9260    21.0320    24.2770 hc         1 Y8O       0.054700
     65 H291        20.3200    22.6710    24.7820 hc         1 Y8O       0.054700
     66 H301        18.8490    22.5200    22.7010 h1         1 Y8O       0.039200
     67 H302        18.2270    23.5450    23.9940 h1         1 Y8O       0.039200
     68 H1          16.0720    19.0900    29.6230 h4         1 Y8O      -0.039200
     69 H241        17.1600    17.7440    27.7770 hn         1 Y8O       0.319500
     70 H311        16.6050    21.8270    22.9710 hn         1 Y8O       0.314500
     71 H351        16.6370    20.4100    31.3240 hn         1 Y8O       0.380400
     72 N24         17.9650    18.3410    27.9030 ns         1 Y8O      -0.493900
@<TRIPOS>BOND
     1     1     5 1   
     2     1    35 1   
     3     1    36 1   
     4     1    37 1   
     5     2    10 1   
     6     2    31 2   
     7     2    72 1   
     8     3     4 1   
     9     3     8 1   
    10     3    33 2   
    11     4     5 1   
    12     4     9 1   
    13     4    38 1   
    14     5     6 1   
    15     5     7 1   
    16     6    39 1   
    17     6    40 1   
    18     6    41 1   
    19     7    42 1   
    20     7    43 1   
    21     7    44 1   
    22     8    10 1   
    23     8    13 1   
    24     9    11 1   
    25     9    45 1   
    26    10    15 1   
    27    10    46 1   
    28    11    12 1   
    29    11    32 2   
    30    12    27 1   
    31    12    28 1   
    32    12    47 1   
    33    13    14 1   
    34    13    48 1   
    35    13    49 1   
    36    14    15 1   
    37    14    16 1   
    38    14    50 1   
    39    15    16 1   
    40    15    51 1   
    41    16    17 1   
    42    16    18 1   
    43    17    52 1   
    44    17    53 1   
    45    17    54 1   
    46    18    55 1   
    47    18    56 1   
    48    18    57 1   
    49    19    20 1   
    50    19    26 1   
    51    19    58 1   
    52    19    72 1   
    53    20    21 1   
    54    20    59 1   
    55    20    60 1   
    56    21    22 1   
    57    21    25 1   
    58    21    61 1   
    59    22    23 1   
    60    22    62 1   
    61    22    63 1   
    62    23    24 1   
    63    23    64 1   
    64    23    65 1   
    65    24    29 1   
    66    24    66 1   
    67    24    67 1   
    68    25    29 1   
    69    25    34 2   
    70    26    30 2   
    71    26    68 1   
    72    29    70 1   
    73    30    71 1   
    74    69    72 1   
@<TRIPOS>SUBSTRUCTURE
     1 Y8O         1 TEMP              0 ****  ****    0 ROOT
