@<TRIPOS>MOLECULE
Y8O
   72    74     1     0     0
SMALL
No Charge or Current Charge


@<TRIPOS>ATOM
      1 C10         22.5790    17.4190    24.0020 c3         1 Y8O      -0.090100
      2 C02         19.5530    18.1590    27.2770 c          1 Y8O       0.595100
      3 C05         19.5500    16.5800    24.4690 c          1 Y8O       0.589100
      4 C06         20.4020    16.2860    23.1880 c3         1 Y8O       0.046700
      5 C07         21.5000    17.3830    22.8860 c3         1 Y8O      -0.050000
      6 C08         22.2270    17.0680    21.5470 c3         1 Y8O      -0.090100
      7 C09         20.8570    18.7960    22.7760 c3         1 Y8O      -0.090100
      8 N04         20.0400    16.2020    25.7380 n          1 Y8O      -0.400800
      9 N11         19.4670    16.1100    22.0470 ns         1 Y8O      -0.479900
     10 C03         19.3290    16.6440    26.9760 c5         1 Y8O       0.060700
     11 C12         19.5270    15.1030    21.1040 c          1 Y8O       0.552100
     12 C13         18.4330    15.1540    20.0190 c3         1 Y8O       0.090300
     13 C18         20.9010    15.0070    25.9310 c5         1 Y8O       0.137000
     14 C19         20.8560    14.7510    27.4440 cx         1 Y8O      -0.126700
     15 C20         19.9130    15.7380    28.0770 cx         1 Y8O      -0.124700
     16 C21         19.5390    14.2630    28.0310 cx         1 Y8O      -0.079000
     17 C22         18.3930    13.7260    27.1560 c3         1 Y8O      -0.065100
     18 C23         19.5890    13.4760    29.3400 c3         1 Y8O      -0.065100
     19 C25         18.2830    20.0600    28.3630 c3         1 Y8O       0.050400
     20 C26         17.0380    20.5930    27.6050 c3         1 Y8O      -0.078400
     21 C27         17.0520    20.4310    26.0440 c6         1 Y8O      -0.136700
     22 C28         18.2310    21.2100    25.3910 c6         1 Y8O      -0.074400
     23 C29         17.9900    21.4060    23.8840 c6         1 Y8O      -0.093400
     24 C30         16.7080    22.2310    23.6590 c6         1 Y8O       0.116000
     25 C32         15.6580    20.7900    25.4600 c          1 Y8O       0.564000
     26 C34         18.1700    20.2780    29.8680 c2         1 Y8O       0.408200
     27 F14         17.1960    15.0740    20.5650 f          1 Y8O      -0.110000
     28 F15         18.4900    16.3130    19.3200 f          1 Y8O      -0.110000
     29 N31         15.5850    21.7510    24.4770 ns         1 Y8O      -0.511900
     30 N35         18.9170    21.0950    30.5230 n2         1 Y8O      -0.732100
     31 O01         20.4970    18.8550    26.9250 o          1 Y8O      -0.602100
     32 O16         20.3860    14.2310    21.1340 o          1 Y8O      -0.582100
     33 O17         18.4810    17.1800    24.3850 o          1 Y8O      -0.616100
     34 O33         14.6360    20.2420    25.8430 o          1 Y8O      -0.583000
     35 H103        22.1500    17.6850    24.9730 hc         1 Y8O       0.042478
     36 H101        23.0790    16.4480    24.0960 hc         1 Y8O       0.042478
     37 H102        23.3510    18.1650    23.7740 hc         1 Y8O       0.042478
     38 H061        20.9130    15.3290    23.3500 h1         1 Y8O       0.087700
     39 H082        22.6540    16.0580    21.5620 hc         1 Y8O       0.042478
     40 H081        21.5460    17.1390    20.6910 hc         1 Y8O       0.042478
     41 H083        23.0460    17.7760    21.3690 hc         1 Y8O       0.042478
     42 H092        20.4030    19.1040    23.7250 hc         1 Y8O       0.042478
     43 H091        21.6110    19.5480    22.5140 hc         1 Y8O       0.042478
     44 H093        20.0800    18.8220    22.0030 hc         1 Y8O       0.042478
     45 H111        18.6870    16.7560    21.9710 hn         1 Y8O       0.352500
     46 H031        18.2470    16.4930    26.8670 h1         1 Y8O       0.082700
     47 H131        18.5710    14.3160    19.3290 h2         1 Y8O       0.085700
     48 H181        20.5340    14.1490    25.3520 h1         1 Y8O       0.062700
     49 H182        21.9260    15.2080    25.5980 h1         1 Y8O       0.062700
     50 H191        21.7750    14.4940    27.9670 hc         1 Y8O       0.103700
     51 H201        20.1750    16.1670    29.0420 hc         1 Y8O       0.106700
     52 H223        17.4310    13.8320    27.6720 hc         1 Y8O       0.042200
     53 H222        18.2940    14.2310    26.1910 hc         1 Y8O       0.042200
     54 H221        18.5370    12.6600    26.9440 hc         1 Y8O       0.042200
     55 H231        20.3950    13.8300    29.9940 hc         1 Y8O       0.042200
     56 H233        18.6480    13.5740    29.8950 hc         1 Y8O       0.042200
     57 H232        19.7610    12.4100    29.1520 hc         1 Y8O       0.042200
     58 H251        19.1530    20.6370    28.0200 h1         1 Y8O       0.104700
     59 H261        16.9040    21.6530    27.8590 hc         1 Y8O       0.065200
     60 H262        16.1590    20.0800    28.0160 hc         1 Y8O       0.065200
     61 H271        17.1670    19.3580    25.8420 hc         1 Y8O       0.086700
     62 H281        19.1780    20.6790    25.5480 hc         1 Y8O       0.055700
     63 H282        18.3440    22.1950    25.8660 hc         1 Y8O       0.055700
     64 H292        17.8960    20.4270    23.3920 hc         1 Y8O       0.054700
     65 H291        18.8480    21.9110    23.4190 hc         1 Y8O       0.054700
     66 H301        16.4200    22.1990    22.5980 h1         1 Y8O       0.039200
     67 H302        16.8970    23.2810    23.9260 h1         1 Y8O       0.039200
     68 H1          17.4130    19.7040    30.3950 h4         1 Y8O      -0.039200
     69 H241        17.7980    17.9640    28.3160 hn         1 Y8O       0.319500
     70 H311        14.6480    21.9790    24.1670 hn         1 Y8O       0.314500
     71 H351        18.6540    21.0660    31.5190 hn         1 Y8O       0.380400
     72 N24         18.5100    18.6350    28.0490 ns         1 Y8O      -0.493900
@<TRIPOS>BOND
     1     1     5 1   
     2     1    35 1   
     3     1    36 1   
     4     1    37 1   
     5     2    10 1   
     6     2    31 2   
     7     2    72 1   
     8     3     4 1   
     9     3     8 1   
    10     3    33 2   
    11     4     5 1   
    12     4     9 1   
    13     4    38 1   
    14     5     6 1   
    15     5     7 1   
    16     6    39 1   
    17     6    40 1   
    18     6    41 1   
    19     7    42 1   
    20     7    43 1   
    21     7    44 1   
    22     8    10 1   
    23     8    13 1   
    24     9    11 1   
    25     9    45 1   
    26    10    15 1   
    27    10    46 1   
    28    11    12 1   
    29    11    32 2   
    30    12    27 1   
    31    12    28 1   
    32    12    47 1   
    33    13    14 1   
    34    13    48 1   
    35    13    49 1   
    36    14    15 1   
    37    14    16 1   
    38    14    50 1   
    39    15    16 1   
    40    15    51 1   
    41    16    17 1   
    42    16    18 1   
    43    17    52 1   
    44    17    53 1   
    45    17    54 1   
    46    18    55 1   
    47    18    56 1   
    48    18    57 1   
    49    19    20 1   
    50    19    26 1   
    51    19    58 1   
    52    19    72 1   
    53    20    21 1   
    54    20    59 1   
    55    20    60 1   
    56    21    22 1   
    57    21    25 1   
    58    21    61 1   
    59    22    23 1   
    60    22    62 1   
    61    22    63 1   
    62    23    24 1   
    63    23    64 1   
    64    23    65 1   
    65    24    29 1   
    66    24    66 1   
    67    24    67 1   
    68    25    29 1   
    69    25    34 2   
    70    26    30 2   
    71    26    68 1   
    72    29    70 1   
    73    30    71 1   
    74    69    72 1   
@<TRIPOS>SUBSTRUCTURE
     1 Y8O         1 TEMP              0 ****  ****    0 ROOT
