@<TRIPOS>MOLECULE
Y8X
   32    34     1     0     0
SMALL
abcg2


@<TRIPOS>ATOM
      1 CAO        -24.2290   -28.6170    15.2170 ca         1 Y8X      -0.094000
      2 CAL        -24.1210   -26.2300    15.1080 ca         1 Y8X      -0.071000
      3 CAG        -21.6110   -22.8920    15.5330 c          1 Y8X       0.593600
      4 CAE        -22.1210   -23.0400    13.1060 ca         1 Y8X       0.331000
      5 CAF        -21.5120   -22.3280    14.1600 ca         1 Y8X      -0.212600
      6 CAP        -24.8550   -27.3800    15.3740 ca         1 Y8X      -0.080300
      7 CAR        -26.2940   -27.2960    15.7950 c3         1 Y8X      -0.048800
      8 CAI        -22.0190   -25.0440    14.4080 c6         1 Y8X       0.448200
      9 CAK        -22.7940   -26.3040    14.6910 ca         1 Y8X      -0.133300
     10 CAA        -20.9500   -21.0800    13.8670 ca         1 Y8X       0.209000
     11 CAB        -21.0110   -20.5330    12.5980 ca         1 Y8X      -0.167000
     12 CAC        -21.6610   -21.2360    11.5900 ca         1 Y8X      -0.039000
     13 CAD        -22.2070   -22.4780    11.8290 ca         1 Y8X      -0.193000
     14 CAM        -22.1880   -27.5410    14.5370 ca         1 Y8X      -0.096000
     15 CAN        -22.9100   -28.6990    14.8020 ca         1 Y8X      -0.113000
     16 NAH        -22.6530   -24.2790    13.3590 nu         1 Y8X      -0.937200
     17 NAJ        -21.9840   -24.1920    15.5750 ns         1 Y8X      -0.517900
     18 CLAS       -20.0910   -20.1600    15.0550 cl         1 Y8X      -0.169000
     19 H1         -24.7820   -29.5250    15.4270 ha         1 Y8X       0.115000
     20 H2         -24.5900   -25.2600    15.2300 ha         1 Y8X       0.132000
     21 H3         -26.9570   -27.3920    14.9330 hc         1 Y8X       0.045700
     22 H4         -26.5530   -28.0930    16.4910 hc         1 Y8X       0.045700
     23 H5         -26.5160   -26.3420    16.2710 hc         1 Y8X       0.045700
     24 H6         -20.9930   -25.3200    14.1170 h2         1 Y8X       0.033700
     25 H7         -20.5590   -19.5730    12.3960 ha         1 Y8X       0.133000
     26 H8         -21.7190   -20.8070    10.5980 ha         1 Y8X       0.117000
     27 H9         -22.6900   -23.0300    11.0320 ha         1 Y8X       0.119000
     28 H10        -21.1550   -27.6040    14.2160 ha         1 Y8X       0.114000
     29 H11        -22.4390   -29.6670    14.6860 ha         1 Y8X       0.117000
     30 H12        -22.8880   -24.8200    12.5390 hn         1 Y8X       0.478000
     31 H13        -22.0190   -24.6280    16.4850 hn         1 Y8X       0.330500
     32 OAQ        -21.4400   -22.2430    16.5500 o          1 Y8X      -0.536000
@<TRIPOS>BOND
     1     1     6 ar  
     2     1    15 ar  
     3     1    19 1   
     4     2     6 ar  
     5     2     9 ar  
     6     2    20 1   
     7     3     5 1   
     8     3    17 1   
     9     3    32 2   
    10     4     5 ar  
    11     4    13 ar  
    12     4    16 1   
    13     5    10 ar  
    14     6     7 1   
    15     7    21 1   
    16     7    22 1   
    17     7    23 1   
    18     8     9 1   
    19     8    16 1   
    20     8    17 1   
    21     8    24 1   
    22     9    14 ar  
    23    10    11 ar  
    24    10    18 1   
    25    11    12 ar  
    26    11    25 1   
    27    12    13 ar  
    28    12    26 1   
    29    13    27 1   
    30    14    15 ar  
    31    14    28 1   
    32    15    29 1   
    33    16    30 1   
    34    17    31 1   
@<TRIPOS>SUBSTRUCTURE
     1 Y8X         1 TEMP              0 ****  ****    0 ROOT
