@<TRIPOS>MOLECULE
Y8X
   32    34     1     0     0
SMALL
No Charge or Current Charge


@<TRIPOS>ATOM
      1 CAO        -24.3270   -28.6250    15.2520 ca         1 Y8X      -0.094000
      2 CAL        -24.0660   -26.2140    15.0670 ca         1 Y8X      -0.071000
      3 CAG        -21.5100   -22.9620    15.5070 c          1 Y8X       0.593600
      4 CAE        -22.0270   -23.0510    13.0930 ca         1 Y8X       0.331000
      5 CAF        -21.5430   -22.2920    14.1640 ca         1 Y8X      -0.212600
      6 CAP        -24.8720   -27.3320    15.3580 ca         1 Y8X      -0.080300
      7 CAR        -26.3230   -27.1420    15.7750 c3         1 Y8X      -0.048800
      8 CAI        -21.8410   -25.1680    14.3660 c6         1 Y8X       0.448200
      9 CAK        -22.7200   -26.3800    14.6760 ca         1 Y8X      -0.133300
     10 CAA        -21.1430   -20.9550    13.9260 ca         1 Y8X       0.209000
     11 CAB        -21.2380   -20.4150    12.6310 ca         1 Y8X      -0.167000
     12 CAC        -21.7300   -21.1860    11.5680 ca         1 Y8X      -0.039000
     13 CAD        -22.1260   -22.5100    11.8050 ca         1 Y8X      -0.193000
     14 CAM        -22.1870   -27.6800    14.5770 ca         1 Y8X      -0.096000
     15 CAN        -22.9880   -28.7980    14.8630 ca         1 Y8X      -0.113000
     16 NAH        -22.4240   -24.3550    13.3240 nu         1 Y8X      -0.937200
     17 NAJ        -21.7460   -24.3100    15.5210 ns         1 Y8X      -0.517900
     18 ClAS       -20.4900   -19.8990    15.1820 cl         1 Y8X      -0.169000
     19 H1         -24.9410   -29.4960    15.4700 ha         1 Y8X       0.115000
     20 H2         -24.4850   -25.2120    15.1430 ha         1 Y8X       0.132000
     21 H3         -26.9800   -27.1110    14.8980 hc         1 Y8X       0.045700
     22 H4         -26.6640   -27.9600    16.4210 hc         1 Y8X       0.045700
     23 H5         -26.4600   -26.2060    16.3300 hc         1 Y8X       0.045700
     24 H6         -20.8320   -25.5070    14.0850 h2         1 Y8X       0.033700
     25 H7         -20.9250   -19.3890    12.4510 ha         1 Y8X       0.133000
     26 H8         -21.8030   -20.7620    10.5690 ha         1 Y8X       0.117000
     27 H9         -22.5090   -23.1130    10.9870 ha         1 Y8X       0.119000
     28 H10        -21.1510   -27.8250    14.2770 ha         1 Y8X       0.114000
     29 H11        -22.5710   -29.7990    14.7830 ha         1 Y8X       0.117000
     30 H12        -22.7930   -24.8540    12.5160 hn         1 Y8X       0.478000
     31 H13        -21.7610   -24.7500    16.4290 hn         1 Y8X       0.330500
     32 OAQ        -21.3330   -22.3770    16.5630 o          1 Y8X      -0.536000
@<TRIPOS>BOND
     1     1     6 ar  
     2     1    15 ar  
     3     1    19 1   
     4     2     6 ar  
     5     2     9 ar  
     6     2    20 1   
     7     3     5 1   
     8     3    17 1   
     9     3    32 2   
    10     4     5 ar  
    11     4    13 ar  
    12     4    16 1   
    13     5    10 ar  
    14     6     7 1   
    15     7    21 1   
    16     7    22 1   
    17     7    23 1   
    18     8     9 1   
    19     8    16 1   
    20     8    17 1   
    21     8    24 1   
    22     9    14 ar  
    23    10    11 ar  
    24    10    18 1   
    25    11    12 ar  
    26    11    25 1   
    27    12    13 ar  
    28    12    26 1   
    29    13    27 1   
    30    14    15 ar  
    31    14    28 1   
    32    15    29 1   
    33    16    30 1   
    34    17    31 1   
@<TRIPOS>SUBSTRUCTURE
     1 Y8X         1 TEMP              0 ****  ****    0 ROOT
