@<TRIPOS>MOLECULE
Y90
   47    50     1     0     0
SMALL
abcg2


@<TRIPOS>ATOM
      1 C01        -26.8180    23.3860   -22.9220 c          1 Y90       0.606100
      2 C02        -26.1370    22.1160   -22.4060 c3         1 Y90      -0.095100
      3 C04        -27.2740    21.1510   -18.3280 ca         1 Y90      -0.006300
      4 C05        -26.0800    21.8230   -18.6050 ca         1 Y90      -0.122000
      5 C06        -25.7140    22.1280   -19.9100 ca         1 Y90      -0.071000
      6 C07        -26.5180    21.7840   -20.9940 ca         1 Y90      -0.112300
      7 C08        -27.6310    20.8310   -16.9260 cx         1 Y90      -0.097400
      8 C09        -28.3090    19.5260   -16.5660 cx         1 Y90      -0.117900
      9 C10        -29.0720    20.8090   -16.4620 cx         1 Y90      -0.117900
     10 C11        -27.0400    25.0150   -24.7350 c6         1 Y90       0.086000
     11 C12        -25.9170    26.0020   -25.0170 c6         1 Y90       0.198300
     12 C14        -24.2380    26.1130   -26.8090 ca         1 Y90       0.582900
     13 C17        -23.1500    27.6820   -28.7020 ca         1 Y90       0.297000
     14 C18        -22.6440    28.5820   -29.6880 cg         1 Y90       0.232000
     15 C20        -22.5520    26.4320   -28.4690 ca         1 Y90      -0.037000
     16 C21        -23.0970    25.6360   -27.5070 ca         1 Y90      -0.194000
     17 C22        -24.3780    24.1190   -25.3570 c6         1 Y90       0.198300
     18 C23        -25.5270    23.1580   -25.0600 c6         1 Y90       0.086000
     19 C25        -27.7000    21.1230   -20.6880 ca         1 Y90       0.189000
     20 C26        -28.0920    20.7980   -19.4060 ca         1 Y90      -0.148000
     21 F13        -28.5260    20.7710   -21.7120 f          1 Y90      -0.186000
     22 N10        -26.5040    23.7800   -24.1790 n          1 Y90      -0.422800
     23 N13        -24.8840    25.3930   -25.8620 nh         1 Y90      -0.775300
     24 N15        -24.7400    27.3480   -27.0820 nb         1 Y90      -0.407000
     25 N16        -24.2100    28.1040   -28.0100 nb         1 Y90      -0.229000
     26 N19        -22.2200    29.3020   -30.4830 n1         1 Y90      -0.436000
     27 O24        -27.6150    24.0110   -22.2220 o          1 Y90      -0.583100
     28 H1         -26.3880    21.2920   -23.0760 hc         1 Y90       0.066700
     29 H2         -25.0550    22.2490   -22.4610 hc         1 Y90       0.066700
     30 H3         -25.4300    22.1070   -17.7870 ha         1 Y90       0.118000
     31 H4         -24.7810    22.6460   -20.0980 ha         1 Y90       0.112000
     32 H5         -26.9140    21.1970   -16.2030 hc         1 Y90       0.082700
     33 H6         -28.5500    18.8550   -17.3810 hc         1 Y90       0.074950
     34 H7         -27.9940    19.0370   -15.6530 hc         1 Y90       0.074950
     35 H8         -29.8320    21.0100   -17.2050 hc         1 Y90       0.074950
     36 H9         -29.2820    21.2060   -15.4770 hc         1 Y90       0.074950
     37 H10        -27.7400    25.4460   -24.0270 h1         1 Y90       0.069200
     38 H11        -27.5720    24.7820   -25.6630 h1         1 Y90       0.069200
     39 H12        -25.4600    26.3170   -24.0720 h1         1 Y90       0.064950
     40 H13        -26.3120    26.8780   -25.5180 h1         1 Y90       0.064950
     41 H14        -21.6820    26.1220   -29.0320 ha         1 Y90       0.139000
     42 H15        -22.6560    24.6760   -27.2930 ha         1 Y90       0.131000
     43 H16        -23.7300    23.6480   -26.0880 h1         1 Y90       0.064950
     44 H17        -23.7990    24.2930   -24.4430 h1         1 Y90       0.064950
     45 H18        -26.0250    22.8880   -25.9960 h1         1 Y90       0.069200
     46 H19        -25.1220    22.2520   -24.6230 h1         1 Y90       0.069200
     47 H20        -29.0300    20.2770   -19.2670 ha         1 Y90       0.132000
@<TRIPOS>BOND
     1     1     2 1   
     2     1    22 1   
     3     1    27 2   
     4     2     6 1   
     5     2    28 1   
     6     2    29 1   
     7     3     4 ar  
     8     3     7 1   
     9     3    20 ar  
    10     4     5 ar  
    11     4    30 1   
    12     5     6 ar  
    13     5    31 1   
    14     6    19 ar  
    15     7     8 1   
    16     7     9 1   
    17     7    32 1   
    18     8     9 1   
    19     8    33 1   
    20     8    34 1   
    21     9    35 1   
    22     9    36 1   
    23    10    11 1   
    24    10    22 1   
    25    10    37 1   
    26    10    38 1   
    27    11    23 1   
    28    11    39 1   
    29    11    40 1   
    30    12    16 ar  
    31    12    23 1   
    32    12    24 ar  
    33    13    14 1   
    34    13    15 ar  
    35    13    25 ar  
    36    14    26 3   
    37    15    16 ar  
    38    15    41 1   
    39    16    42 1   
    40    17    18 1   
    41    17    23 1   
    42    17    43 1   
    43    17    44 1   
    44    18    22 1   
    45    18    45 1   
    46    18    46 1   
    47    19    20 ar  
    48    19    21 1   
    49    20    47 1   
    50    24    25 ar  
@<TRIPOS>SUBSTRUCTURE
     1 Y90         1 TEMP              0 ****  ****    0 ROOT
