@<TRIPOS>MOLECULE
Y90
   47    50     1     0     0
SMALL
No Charge or Current Charge


@<TRIPOS>ATOM
      1 C01        -24.9220    24.0240   -21.8440 c          1 Y90       0.606100
      2 C02        -24.5610    22.5690   -21.4770 c3         1 Y90      -0.095100
      3 C04        -27.4610    20.9540   -18.6300 ca         1 Y90      -0.006300
      4 C05        -26.2610    21.5450   -18.1870 ca         1 Y90      -0.122000
      5 C06        -25.3310    22.0600   -19.1060 ca         1 Y90      -0.071000
      6 C07        -25.5820    21.9940   -20.4900 ca         1 Y90      -0.112300
      7 C08        -28.4410    20.4090   -17.6190 cx         1 Y90      -0.097400
      8 C09        -29.2560    19.1600   -17.8750 cx         1 Y90      -0.117900
      9 C10        -29.9390    20.5050   -17.8120 cx         1 Y90      -0.117900
     10 C11        -26.0240    25.7240   -23.3740 c6         1 Y90       0.086000
     11 C12        -25.1290    26.3260   -24.4910 c6         1 Y90       0.198300
     12 C14        -24.7330    25.9850   -26.9750 ca         1 Y90       0.582900
     13 C17        -24.2320    27.2210   -29.3820 ca         1 Y90       0.297000
     14 C18        -24.0100    27.9290   -30.6170 cg         1 Y90       0.232000
     15 C20        -23.7090    25.9310   -29.1730 ca         1 Y90      -0.037000
     16 C21        -23.9650    25.2970   -27.9390 ca         1 Y90      -0.194000
     17 C22        -24.7990    23.9940   -25.3990 c6         1 Y90       0.198300
     18 C23        -25.7010    23.4610   -24.2500 c6         1 Y90       0.086000
     19 C25        -26.7840    21.4040   -20.9340 ca         1 Y90       0.189000
     20 C26        -27.7120    20.8890   -20.0160 ca         1 Y90      -0.148000
     21 F13        -27.0600    21.3260   -22.2540 f          1 Y90      -0.186000
     22 N10        -25.6200    24.3310   -23.0430 n          1 Y90      -0.422800
     23 N13        -25.0530    25.4410   -25.7050 nh         1 Y90      -0.775300
     24 N15        -25.2060    27.2290   -27.2380 nb         1 Y90      -0.407000
     25 N16        -24.9630    27.8410   -28.4210 nb         1 Y90      -0.229000
     26 N19        -23.8230    28.4940   -31.6240 n1         1 Y90      -0.436000
     27 O24        -24.6560    24.9180   -21.0510 o          1 Y90      -0.583100
     28 H1         -24.5000    21.9160   -22.3480 hc         1 Y90       0.066700
     29 H2         -23.5740    22.5800   -21.0000 hc         1 Y90       0.066700
     30 H3         -26.0450    21.6080   -17.1230 ha         1 Y90       0.118000
     31 H4         -24.4140    22.5160   -18.7380 ha         1 Y90       0.112000
     32 H5         -28.0890    20.5400   -16.5970 hc         1 Y90       0.082700
     33 H6         -29.1710    18.6760   -18.8450 hc         1 Y90       0.074950
     34 H7         -29.4070    18.4760   -17.0420 hc         1 Y90       0.074950
     35 H8         -30.3150    20.9290   -18.7400 hc         1 Y90       0.074950
     36 H9         -30.5480    20.7230   -16.9380 hc         1 Y90       0.074950
     37 H10        -25.9890    26.3730   -22.4890 h1         1 Y90       0.069200
     38 H11        -27.0670    25.7190   -23.7220 h1         1 Y90       0.069200
     39 H12        -24.1180    26.4820   -24.0850 h1         1 Y90       0.064950
     40 H13        -25.5320    27.3180   -24.7380 h1         1 Y90       0.064950
     41 H14        -23.1200    25.4380   -29.9440 ha         1 Y90       0.139000
     42 H15        -23.5640    24.3080   -27.7460 ha         1 Y90       0.131000
     43 H16        -24.9950    23.3720   -26.2840 h1         1 Y90       0.064950
     44 H17        -23.7450    23.8500   -25.1200 h1         1 Y90       0.064950
     45 H18        -26.7420    23.4560   -24.6030 h1         1 Y90       0.069200
     46 H19        -25.4460    22.4170   -24.0480 h1         1 Y90       0.069200
     47 H20        -28.6270    20.4420   -20.3940 ha         1 Y90       0.132000
@<TRIPOS>BOND
     1     1     2 1   
     2     1    22 1   
     3     1    27 2   
     4     2     6 1   
     5     2    28 1   
     6     2    29 1   
     7     3     4 ar  
     8     3     7 1   
     9     3    20 ar  
    10     4     5 ar  
    11     4    30 1   
    12     5     6 ar  
    13     5    31 1   
    14     6    19 ar  
    15     7     8 1   
    16     7     9 1   
    17     7    32 1   
    18     8     9 1   
    19     8    33 1   
    20     8    34 1   
    21     9    35 1   
    22     9    36 1   
    23    10    11 1   
    24    10    22 1   
    25    10    37 1   
    26    10    38 1   
    27    11    23 1   
    28    11    39 1   
    29    11    40 1   
    30    12    16 ar  
    31    12    23 1   
    32    12    24 ar  
    33    13    14 1   
    34    13    15 ar  
    35    13    25 ar  
    36    14    26 3   
    37    15    16 ar  
    38    15    41 1   
    39    16    42 1   
    40    17    18 1   
    41    17    23 1   
    42    17    43 1   
    43    17    44 1   
    44    18    22 1   
    45    18    45 1   
    46    18    46 1   
    47    19    20 ar  
    48    19    21 1   
    49    20    47 1   
    50    24    25 ar  
@<TRIPOS>SUBSTRUCTURE
     1 Y90         1 TEMP              0 ****  ****    0 ROOT
