@<TRIPOS>MOLECULE
Y92
   46    49     1     0     0
SMALL
abcg2


@<TRIPOS>ATOM
      1 C01        -35.5340   -10.9080   -13.0500 c6         1 Y92       0.090000
      2 C02        -35.7850    -9.4740   -13.4940 c6         1 Y92       0.195300
      3 C04        -31.9380   -13.2030    -6.8940 ca         1 Y92      -0.065300
      4 C05        -31.9850   -11.8400    -7.1640 ca         1 Y92       0.167000
      5 C06        -32.1390   -11.3080    -8.4310 ca         1 Y92      -0.128000
      6 C07        -32.2560   -12.1640    -9.5220 ca         1 Y92      -0.049300
      7 C08        -32.4400   -11.6180   -10.9090 c3         1 Y92      -0.104100
      8 C09        -33.9130   -11.4850   -11.3070 c          1 Y92       0.604100
      9 C11        -33.1800   -10.6880   -13.5690 c6         1 Y92       0.090000
     10 C12        -33.4040    -9.2460   -14.0140 c6         1 Y92       0.195300
     11 C14        -35.0960    -8.0950   -15.3970 ca         1 Y92       0.557900
     12 C17        -35.9190    -6.3260   -17.2240 ca         1 Y92       0.331000
     13 C20        -34.5550    -6.6420   -17.2170 ca         1 Y92      -0.070000
     14 C21        -34.1330    -7.5420   -16.2830 ca         1 Y92      -0.167000
     15 C22        -31.7720   -13.7020    -5.5080 cx         1 Y92      -0.087400
     16 C23        -30.9850   -14.9630    -5.2230 cx         1 Y92      -0.119400
     17 C24        -32.4720   -14.9630    -5.0480 cx         1 Y92      -0.119400
     18 C25        -32.2090   -13.5390    -9.2910 ca         1 Y92      -0.105000
     19 C26        -32.0550   -14.0430    -8.0080 ca         1 Y92      -0.089000
     20 N10        -34.1670   -11.0730   -12.5720 n          1 Y92      -0.424800
     21 N13        -34.7790    -9.0490   -14.4680 nh         1 Y92      -0.774300
     22 N15        -36.3810    -7.7100   -15.4640 nb         1 Y92      -0.395000
     23 N16        -36.7830    -6.8360   -16.3870 nb         1 Y92      -0.263000
     24 O24        -34.8160   -11.7480   -10.5130 o          1 Y92      -0.584100
     25 CL18       -36.5380    -5.1830   -18.3920 cl         1 Y92      -0.160000
     26 H1         -36.2200   -11.1730   -12.2520 h1         1 Y92       0.066450
     27 H2         -35.6930   -11.5850   -13.8940 h1         1 Y92       0.066450
     28 H3         -35.7640    -8.8060   -12.6240 h1         1 Y92       0.061450
     29 H4         -36.7680    -9.4050   -13.9480 h1         1 Y92       0.061450
     30 H5         -32.1660   -10.2330    -8.5550 ha         1 Y92       0.129000
     31 H6         -31.9420   -12.2690   -11.6310 hc         1 Y92       0.063700
     32 H7         -31.9690   -10.6370   -10.9920 hc         1 Y92       0.063700
     33 H8         -33.2750   -11.3530   -14.4330 h1         1 Y92       0.066450
     34 H9         -32.1730   -10.7810   -13.1780 h1         1 Y92       0.066450
     35 H10        -32.7020    -9.0330   -14.8130 h1         1 Y92       0.061450
     36 H11        -33.1890    -8.5690   -13.1780 h1         1 Y92       0.061450
     37 H12        -33.8720    -6.1910   -17.9220 ha         1 Y92       0.143000
     38 H13        -33.0910    -7.8200   -16.2440 ha         1 Y92       0.130000
     39 H14        -31.6850   -12.9240    -4.7640 hc         1 Y92       0.094700
     40 H15        -30.5740   -15.4910    -6.0730 hc         1 Y92       0.073950
     41 H16        -30.3610   -14.9680    -4.3380 hc         1 Y92       0.073950
     42 H17        -32.8750   -14.9690    -4.0440 hc         1 Y92       0.073950
     43 H18        -33.0680   -15.4910    -5.7820 hc         1 Y92       0.073950
     44 H19        -32.2940   -14.2230   -10.1270 ha         1 Y92       0.115000
     45 H20        -32.0220   -15.1160    -7.8670 ha         1 Y92       0.116000
     46 F05        -31.8690   -10.9630    -6.1260 f          1 Y92      -0.187000
@<TRIPOS>BOND
     1     1     2 1   
     2     1    20 1   
     3     1    26 1   
     4     1    27 1   
     5     2    21 1   
     6     2    28 1   
     7     2    29 1   
     8     3     4 ar  
     9     3    15 1   
    10     3    19 ar  
    11     4     5 ar  
    12     4    46 1   
    13     5     6 ar  
    14     5    30 1   
    15     6     7 1   
    16     6    18 ar  
    17     7     8 1   
    18     7    31 1   
    19     7    32 1   
    20     8    20 1   
    21     8    24 2   
    22     9    10 1   
    23     9    20 1   
    24     9    33 1   
    25     9    34 1   
    26    10    21 1   
    27    10    35 1   
    28    10    36 1   
    29    11    14 ar  
    30    11    21 1   
    31    11    22 ar  
    32    12    13 ar  
    33    12    23 ar  
    34    12    25 1   
    35    13    14 ar  
    36    13    37 1   
    37    14    38 1   
    38    15    16 1   
    39    15    17 1   
    40    15    39 1   
    41    16    17 1   
    42    16    40 1   
    43    16    41 1   
    44    17    42 1   
    45    17    43 1   
    46    18    19 ar  
    47    18    44 1   
    48    19    45 1   
    49    22    23 ar  
@<TRIPOS>SUBSTRUCTURE
     1 Y92         1 TEMP              0 ****  ****    0 ROOT
