@<TRIPOS>MOLECULE
Y92
   46    49     1     0     0
SMALL
No Charge or Current Charge


@<TRIPOS>ATOM
      1 C01        -35.0330    -8.1790   -11.5010 c6         1 Y92       0.090000
      2 C02        -35.0870    -7.9120   -13.0290 c6         1 Y92       0.195300
      3 C04        -32.3780   -13.5010    -8.0180 ca         1 Y92      -0.065300
      4 C05        -33.1460   -12.5440    -7.3140 ca         1 Y92       0.167000
      5 C06        -33.0750   -11.1800    -7.6430 ca         1 Y92      -0.128000
      6 C07        -32.2400   -10.7380    -8.6840 ca         1 Y92      -0.049300
      7 C08        -32.1710    -9.2550    -9.0410 c3         1 Y92      -0.104100
      8 C09        -33.5200    -8.7520    -9.5880 c          1 Y92       0.604100
      9 C11        -33.1190    -9.7580   -11.8800 c6         1 Y92       0.090000
     10 C12        -33.2130    -9.4600   -13.4010 c6         1 Y92       0.195300
     11 C14        -35.0190    -9.3090   -15.1400 ca         1 Y92       0.557900
     12 C17        -35.9220    -9.6020   -17.7110 ca         1 Y92       0.331000
     13 C20        -35.2800   -10.6980   -17.1080 ca         1 Y92      -0.070000
     14 C21        -34.8180   -10.5470   -15.7840 ca         1 Y92      -0.167000
     15 C22        -32.4550   -14.9740    -7.6640 cx         1 Y92      -0.087400
     16 C23        -31.2450   -15.8820    -7.7240 cx         1 Y92      -0.119400
     17 C24        -32.3690   -16.0610    -8.7150 cx         1 Y92      -0.119400
     18 C25        -31.4660   -11.6830    -9.3840 ca         1 Y92      -0.105000
     19 C26        -31.5350   -13.0480    -9.0570 ca         1 Y92      -0.089000
     20 N10        -33.7350    -8.7220   -10.9870 n          1 Y92      -0.424800
     21 N13        -34.5910    -9.0790   -13.8100 nh         1 Y92      -0.774300
     22 N15        -35.6550    -8.2920   -15.7790 nb         1 Y92      -0.395000
     23 N16        -36.1000    -8.4330   -17.0490 nb         1 Y92      -0.263000
     24 O24        -34.3850    -8.3540    -8.8170 o          1 Y92      -0.584100
     25 Cl18       -36.5330    -9.6990   -19.3580 cl         1 Y92      -0.160000
     26 H1         -35.2720    -7.2410   -10.9800 h1         1 Y92       0.066450
     27 H2         -35.8280    -8.8960   -11.2500 h1         1 Y92       0.066450
     28 H3         -34.4790    -7.0230   -13.2570 h1         1 Y92       0.061450
     29 H4         -36.1280    -7.6730   -13.2920 h1         1 Y92       0.061450
     30 H5         -33.6760   -10.4680    -7.0840 ha         1 Y92       0.129000
     31 H6         -31.3830    -9.0950    -9.7840 hc         1 Y92       0.063700
     32 H7         -31.9260    -8.6860    -8.1370 hc         1 Y92       0.063700
     33 H8         -33.6150   -10.7190   -11.6830 h1         1 Y92       0.066450
     34 H9         -32.0570    -9.8930   -11.6430 h1         1 Y92       0.066450
     35 H10        -32.8590   -10.3450   -13.9480 h1         1 Y92       0.061450
     36 H11        -32.5200    -8.6400   -13.6400 h1         1 Y92       0.061450
     37 H12        -35.1520   -11.6310   -17.6490 ha         1 Y92       0.143000
     38 H13        -34.3340   -11.3710   -15.2700 ha         1 Y92       0.130000
     39 H14        -33.1440   -15.1730    -6.8470 hc         1 Y92       0.094700
     40 H15        -30.3060   -15.4710    -8.0870 hc         1 Y92       0.073950
     41 H16        -31.1360   -16.6290    -6.9410 hc         1 Y92       0.073950
     42 H17        -33.0150   -16.9280    -8.5960 hc         1 Y92       0.073950
     43 H18        -32.1900   -15.7710    -9.7470 hc         1 Y92       0.073950
     44 H19        -30.8040   -11.3640   -10.1850 ha         1 Y92       0.115000
     45 H20        -30.9250   -13.7490    -9.6200 ha         1 Y92       0.116000
     46 F05        -33.9670   -12.9220    -6.3070 f          1 Y92      -0.187000
@<TRIPOS>BOND
     1     1     2 1   
     2     1    20 1   
     3     1    26 1   
     4     1    27 1   
     5     2    21 1   
     6     2    28 1   
     7     2    29 1   
     8     3     4 ar  
     9     3    15 1   
    10     3    19 ar  
    11     4     5 ar  
    12     4    46 1   
    13     5     6 ar  
    14     5    30 1   
    15     6     7 1   
    16     6    18 ar  
    17     7     8 1   
    18     7    31 1   
    19     7    32 1   
    20     8    20 1   
    21     8    24 2   
    22     9    10 1   
    23     9    20 1   
    24     9    33 1   
    25     9    34 1   
    26    10    21 1   
    27    10    35 1   
    28    10    36 1   
    29    11    14 ar  
    30    11    21 1   
    31    11    22 ar  
    32    12    13 ar  
    33    12    23 ar  
    34    12    25 1   
    35    13    14 ar  
    36    13    37 1   
    37    14    38 1   
    38    15    16 1   
    39    15    17 1   
    40    15    39 1   
    41    16    17 1   
    42    16    40 1   
    43    16    41 1   
    44    17    42 1   
    45    17    43 1   
    46    18    19 ar  
    47    18    44 1   
    48    19    45 1   
    49    22    23 ar  
@<TRIPOS>SUBSTRUCTURE
     1 Y92         1 TEMP              0 ****  ****    0 ROOT
