@<TRIPOS>MOLECULE
Y93
   49    52     1     0     0
SMALL
abcg2


@<TRIPOS>ATOM
      1 C01        -28.3510    19.2270   -16.8520 cx         1 Y93      -0.121900
      2 C02        -27.5880    20.5200   -17.0460 cx         1 Y93      -0.089400
      3 C03        -29.0300    20.5360   -16.5880 cx         1 Y93      -0.121900
      4 C04        -27.1980    20.9930   -18.3980 ca         1 Y93      -0.035300
      5 C05        -27.9970    20.7920   -19.5280 ca         1 Y93      -0.107000
      6 C06        -27.5940    21.2430   -20.7780 ca         1 Y93      -0.089000
      7 C07        -26.3810    21.9120   -20.9480 ca         1 Y93      -0.075300
      8 C08        -25.9520    22.4060   -22.2990 c3         1 Y93      -0.101100
      9 C09        -26.3900    23.8460   -22.5830 c          1 Y93       0.599100
     10 C11        -25.3160    23.6630   -24.8280 c6         1 Y93       0.093000
     11 C12        -24.1710    24.4820   -25.4130 c6         1 Y93       0.210800
     12 C14        -24.2830    26.4200   -26.9670 ca         1 Y93       0.573900
     13 C17        -23.7280    27.7770   -29.2050 ca         1 Y93       0.325000
     14 C20        -23.2920    26.4480   -29.1430 ca         1 Y93      -0.066000
     15 C21        -23.5710    25.7550   -28.0020 ca         1 Y93      -0.176000
     16 C22        -25.2500    26.5280   -24.7000 c6         1 Y93       0.211800
     17 C23        -26.4270    25.7520   -24.1100 c6         1 Y93       0.092700
     18 C24        -27.6430    25.7330   -25.0340 c3         1 Y93      -0.104100
     19 C26        -25.5820    22.1120   -19.8240 ca         1 Y93      -0.089000
     20 C27        -25.9840    21.6620   -18.5720 ca         1 Y93      -0.107000
     21 N10        -25.9900    24.3920   -23.7590 n          1 Y93      -0.422800
     22 N13        -24.6410    25.8010   -25.8090 nh         1 Y93      -0.786300
     23 N15        -24.6480    27.7080   -27.1120 nb         1 Y93      -0.402000
     24 N16        -24.3700    28.3700   -28.2340 nb         1 Y93      -0.261000
     25 O25        -27.0700    24.4760   -21.7730 o          1 Y93      -0.586100
     26 CL18       -23.4090    28.7290   -30.6360 cl         1 Y93      -0.162000
     27 H1         -28.6290    18.6830   -17.7450 hc         1 Y93       0.072950
     28 H2         -28.0790    18.6080   -16.0070 hc         1 Y93       0.072950
     29 H3         -26.8570    20.7470   -16.2800 hc         1 Y93       0.079700
     30 H4         -29.2250    20.8180   -15.5620 hc         1 Y93       0.072950
     31 H5         -29.7690    20.8760   -17.3020 hc         1 Y93       0.072950
     32 H6         -28.9440    20.2740   -19.4390 ha         1 Y93       0.111500
     33 H7         -28.2310    21.0720   -21.6380 ha         1 Y93       0.109000
     34 H8         -26.3650    21.7640   -23.0810 hc         1 Y93       0.060700
     35 H9         -24.8660    22.3490   -22.3900 hc         1 Y93       0.060700
     36 H10        -26.0330    23.4270   -25.6200 h1         1 Y93       0.053200
     37 H11        -24.9140    22.7290   -24.4540 h1         1 Y93       0.053200
     38 H12        -23.7670    23.9370   -26.2590 h1         1 Y93       0.053200
     39 H13        -23.3760    24.5900   -24.6650 h1         1 Y93       0.053200
     40 H14        -22.7560    25.9950   -29.9650 ha         1 Y93       0.142000
     41 H15        -23.2530    24.7290   -27.9100 ha         1 Y93       0.129000
     42 H16        -24.4940    26.6870   -23.9230 h1         1 Y93       0.073200
     43 H17        -25.5930    27.4950   -25.0500 h1         1 Y93       0.073200
     44 H18        -26.7000    26.2360   -23.1760 h1         1 Y93       0.094700
     45 H19        -28.4480    25.1480   -24.5870 hc         1 Y93       0.045700
     46 H20        -28.0010    26.7510   -25.1930 hc         1 Y93       0.045700
     47 H21        -27.4020    25.3030   -26.0080 hc         1 Y93       0.045700
     48 H22        -24.6330    22.6250   -19.9300 ha         1 Y93       0.109000
     49 H23        -25.3430    21.8280   -17.7130 ha         1 Y93       0.111500
@<TRIPOS>BOND
     1     1     2 1   
     2     1     3 1   
     3     1    27 1   
     4     1    28 1   
     5     2     3 1   
     6     2     4 1   
     7     2    29 1   
     8     3    30 1   
     9     3    31 1   
    10     4     5 ar  
    11     4    20 ar  
    12     5     6 ar  
    13     5    32 1   
    14     6     7 ar  
    15     6    33 1   
    16     7     8 1   
    17     7    19 ar  
    18     8     9 1   
    19     8    34 1   
    20     8    35 1   
    21     9    21 1   
    22     9    25 2   
    23    10    11 1   
    24    10    21 1   
    25    10    36 1   
    26    10    37 1   
    27    11    22 1   
    28    11    38 1   
    29    11    39 1   
    30    12    15 ar  
    31    12    22 1   
    32    12    23 ar  
    33    13    14 ar  
    34    13    24 ar  
    35    13    26 1   
    36    14    15 ar  
    37    14    40 1   
    38    15    41 1   
    39    16    17 1   
    40    16    22 1   
    41    16    42 1   
    42    16    43 1   
    43    17    18 1   
    44    17    21 1   
    45    17    44 1   
    46    18    45 1   
    47    18    46 1   
    48    18    47 1   
    49    19    20 ar  
    50    19    48 1   
    51    20    49 1   
    52    23    24 ar  
@<TRIPOS>SUBSTRUCTURE
     1 Y93         1 TEMP              0 ****  ****    0 ROOT
