@<TRIPOS>MOLECULE
Y93
   49    52     1     0     0
SMALL
No Charge or Current Charge


@<TRIPOS>ATOM
      1 C01        -28.4290    19.1000   -16.7440 cx         1 Y93      -0.121900
      2 C02        -27.6810    20.4030   -16.9260 cx         1 Y93      -0.089400
      3 C03        -29.1260    20.4110   -16.4760 cx         1 Y93      -0.121900
      4 C04        -27.2550    20.9060   -18.2850 ca         1 Y93      -0.035300
      5 C05        -28.0560    20.7150   -19.4310 ca         1 Y93      -0.107000
      6 C06        -27.6360    21.1940   -20.6840 ca         1 Y93      -0.089000
      7 C07        -26.4100    21.8720   -20.8120 ca         1 Y93      -0.075300
      8 C08        -25.9530    22.3890   -22.1730 c3         1 Y93      -0.101100
      9 C09        -26.3760    23.8360   -22.5040 c          1 Y93       0.599100
     10 C11        -25.3120    23.6480   -24.8240 c6         1 Y93       0.093000
     11 C12        -24.3120    24.4210   -25.7340 c6         1 Y93       0.210800
     12 C14        -24.3550    26.4400   -27.2680 ca         1 Y93       0.573900
     13 C17        -23.6970    27.8490   -29.5270 ca         1 Y93       0.325000
     14 C20        -22.9360    26.7080   -29.2160 ca         1 Y93      -0.066000
     15 C21        -23.2750    25.9830   -28.0540 ca         1 Y93      -0.176000
     16 C22        -25.1960    26.5750   -24.8850 c6         1 Y93       0.211800
     17 C23        -26.2820    25.8370   -24.0480 c6         1 Y93       0.092700
     18 C24        -27.6420    25.8430   -24.8040 c3         1 Y93      -0.104100
     19 C26        -25.6080    22.0650   -19.6730 ca         1 Y93      -0.089000
     20 C27        -26.0280    21.5860   -18.4200 ca         1 Y93      -0.107000
     21 N10        -25.8730    24.4440   -23.6820 n          1 Y93      -0.422800
     22 N13        -24.7850    25.7880   -26.0870 nh         1 Y93      -0.786300
     23 N15        -25.0460    27.5530   -27.6270 nb         1 Y93      -0.402000
     24 N16        -24.7240    28.2510   -28.7410 nb         1 Y93      -0.261000
     25 O25        -27.1000    24.4680   -21.7430 o          1 Y93      -0.586100
     26 Cl18       -23.3450    28.8150   -30.9540 cl         1 Y93      -0.162000
     27 H1         -28.7180    18.5410   -17.6310 hc         1 Y93       0.072950
     28 H2         -28.1660    18.4820   -15.8890 hc         1 Y93       0.072950
     29 H3         -26.9480    20.6350   -16.1560 hc         1 Y93       0.079700
     30 H4         -29.3310    20.6740   -15.4410 hc         1 Y93       0.072950
     31 H5         -29.8850    20.7380   -17.1830 hc         1 Y93       0.072950
     32 H6         -29.0080    20.1950   -19.3610 ha         1 Y93       0.111500
     33 H7         -28.2660    21.0380   -21.5570 ha         1 Y93       0.109000
     34 H8         -26.2900    21.7450   -22.9930 hc         1 Y93       0.060700
     35 H9         -24.8660    22.3190   -22.2920 hc         1 Y93       0.060700
     36 H10        -26.1520    23.3060   -25.4440 h1         1 Y93       0.053200
     37 H11        -24.7970    22.7490   -24.4640 h1         1 Y93       0.053200
     38 H12        -24.1550    23.8170   -26.6390 h1         1 Y93       0.053200
     39 H13        -23.3450    24.4900   -25.2140 h1         1 Y93       0.053200
     40 H14        -22.1120    26.4020   -29.8550 ha         1 Y93       0.142000
     41 H15        -22.7030    25.1050   -27.7770 ha         1 Y93       0.129000
     42 H16        -24.3200    26.7500   -24.2430 h1         1 Y93       0.073200
     43 H17        -25.5850    27.5670   -25.1570 h1         1 Y93       0.073200
     44 H18        -26.4200    26.4230   -23.1280 h1         1 Y93       0.094700
     45 H19        -28.4280    25.3700   -24.2050 hc         1 Y93       0.045700
     46 H20        -27.9670    26.8670   -25.0230 hc         1 Y93       0.045700
     47 H21        -27.5800    25.3040   -25.7570 hc         1 Y93       0.045700
     48 H22        -24.6580    22.5880   -19.7570 ha         1 Y93       0.109000
     49 H23        -25.3940    21.7460   -17.5510 ha         1 Y93       0.111500
@<TRIPOS>BOND
     1     1     2 1   
     2     1     3 1   
     3     1    27 1   
     4     1    28 1   
     5     2     3 1   
     6     2     4 1   
     7     2    29 1   
     8     3    30 1   
     9     3    31 1   
    10     4     5 ar  
    11     4    20 ar  
    12     5     6 ar  
    13     5    32 1   
    14     6     7 ar  
    15     6    33 1   
    16     7     8 1   
    17     7    19 ar  
    18     8     9 1   
    19     8    34 1   
    20     8    35 1   
    21     9    21 1   
    22     9    25 2   
    23    10    11 1   
    24    10    21 1   
    25    10    36 1   
    26    10    37 1   
    27    11    22 1   
    28    11    38 1   
    29    11    39 1   
    30    12    15 ar  
    31    12    22 1   
    32    12    23 ar  
    33    13    14 ar  
    34    13    24 ar  
    35    13    26 1   
    36    14    15 ar  
    37    14    40 1   
    38    15    41 1   
    39    16    17 1   
    40    16    22 1   
    41    16    42 1   
    42    16    43 1   
    43    17    18 1   
    44    17    21 1   
    45    17    44 1   
    46    18    45 1   
    47    18    46 1   
    48    18    47 1   
    49    19    20 ar  
    50    19    48 1   
    51    20    49 1   
    52    23    24 ar  
@<TRIPOS>SUBSTRUCTURE
     1 Y93         1 TEMP              0 ****  ****    0 ROOT
