@<TRIPOS>MOLECULE
Y94
   54    56     1     0     0
SMALL
No Charge or Current Charge


@<TRIPOS>ATOM
      1 O26         50.8290    37.9430     0.2360 o          1 Y94      -0.619100
      2 C24         51.6580    37.0560     0.3810 c          1 Y94       0.658100
      3 N25         52.9850    37.3260     0.6020 ns         1 Y94      -0.518900
      4 C27         53.5470    38.6680     0.6830 c3         1 Y94       0.144200
      5 C28         55.0300    38.5700     0.9560 c2         1 Y94      -0.250200
      6 C29         55.9480    38.0810     0.1050 c2         1 Y94      -0.307000
      7 N01         51.3960    35.6950     0.3450 ns         1 Y94      -0.164000
      8 C19         50.1960    34.9560     0.1450 ca         1 Y94      -0.018000
      9 C13         50.2840    33.5530     0.1820 ca         1 Y94      -0.150000
     10 C21         48.9460    35.5540    -0.0930 ca         1 Y94      -0.102000
     11 C17         47.8100    34.7560    -0.2880 ca         1 Y94      -0.097000
     12 C10         47.8900    33.3500    -0.2510 ca         1 Y94      -0.048300
     13 C16         46.5930    32.5630    -0.4390 c3         1 Y94      -0.046800
     14 C3          49.1480    32.7230    -0.0130 ca         1 Y94      -0.122600
     15 C1          49.3110    31.2060     0.0260 c          1 Y94       0.611700
     16 O7          48.5490    30.4270    -0.5300 o          1 Y94      -0.584100
     17 N2          50.4230    30.7450     0.6980 ns         1 Y94      -0.509900
     18 C6          50.8070    29.3370     0.8180 c3         1 Y94       0.159000
     19 C01         51.5440    29.1070     2.1500 c3         1 Y94      -0.104100
     20 C5          51.6470    28.8480    -0.3770 ca         1 Y94      -0.077300
     21 C8          51.6090    27.4980    -0.8330 ca         1 Y94      -0.018000
     22 C14         50.8130    26.5080    -0.2020 ca         1 Y94      -0.101000
     23 C20         50.7930    25.1870    -0.6800 ca         1 Y94      -0.106000
     24 C22         51.5670    24.8260    -1.7920 ca         1 Y94      -0.107000
     25 C18         52.3690    25.7880    -2.4240 ca         1 Y94      -0.098000
     26 C11         52.3960    27.1130    -1.9500 ca         1 Y94      -0.036000
     27 C12         53.2200    28.0500    -2.5960 ca         1 Y94      -0.095000
     28 C9          53.2780    29.3700    -2.1350 ca         1 Y94      -0.108000
     29 C4          52.5030    29.7640    -1.0350 ca         1 Y94      -0.099000
     30 H1          53.6120    36.5400     0.7090 hn         1 Y94       0.306500
     31 H2          53.3680    39.1940    -0.2660 h1         1 Y94       0.064200
     32 H3          53.0450    39.2240     1.4870 h1         1 Y94       0.064200
     33 H4          55.3270    38.9440     1.9390 ha         1 Y94       0.185000
     34 H5          57.0070    38.0400     0.3660 ha         1 Y94       0.163000
     35 H6          55.6740    37.7060    -0.8830 ha         1 Y94       0.163000
     36 H7          52.2100    35.1130     0.4870 hn         1 Y94       0.141000
     37 H8          51.2650    33.1130     0.3420 ha         1 Y94       0.107000
     38 H9          48.8290    36.6320    -0.1330 ha         1 Y94       0.146000
     39 H10         46.8540    35.2420    -0.4670 ha         1 Y94       0.117000
     40 H11         46.4520    31.8300     0.3640 hc         1 Y94       0.049700
     41 H12         45.7130    33.2170    -0.4290 hc         1 Y94       0.049700
     42 H13         46.5890    32.0310    -1.3970 hc         1 Y94       0.049700
     43 H14         50.9970    31.4410     1.1530 hn         1 Y94       0.316500
     44 H15         49.8700    28.7680     0.8550 h1         1 Y94       0.081700
     45 H16         50.9190    29.4190     2.9950 hc         1 Y94       0.045367
     46 H17         51.7850    28.0450     2.2780 hc         1 Y94       0.045367
     47 H18         52.4800    29.6760     2.1800 hc         1 Y94       0.045367
     48 H19         50.2060    26.7330     0.6690 ha         1 Y94       0.113000
     49 H20         50.1770    24.4400    -0.1850 ha         1 Y94       0.112000
     50 H21         51.5500    23.8030    -2.1600 ha         1 Y94       0.113000
     51 H22         52.9720    25.4990    -3.2820 ha         1 Y94       0.112000
     52 H23         53.8250    27.7540    -3.4510 ha         1 Y94       0.113000
     53 H24         53.9250    30.0910    -2.6300 ha         1 Y94       0.110000
     54 H25         52.5760    30.7950    -0.6970 ha         1 Y94       0.103000
@<TRIPOS>BOND
     1     1     2 2   
     2     2     3 1   
     3     2     7 1   
     4     3     4 1   
     5     3    30 1   
     6     4     5 1   
     7     4    31 1   
     8     4    32 1   
     9     5     6 2   
    10     5    33 1   
    11     6    34 1   
    12     6    35 1   
    13     7     8 1   
    14     7    36 1   
    15     8     9 ar  
    16     8    10 ar  
    17     9    14 ar  
    18     9    37 1   
    19    10    11 ar  
    20    10    38 1   
    21    11    12 ar  
    22    11    39 1   
    23    12    13 1   
    24    12    14 ar  
    25    13    40 1   
    26    13    41 1   
    27    13    42 1   
    28    14    15 1   
    29    15    16 2   
    30    15    17 1   
    31    17    18 1   
    32    17    43 1   
    33    18    19 1   
    34    18    20 1   
    35    18    44 1   
    36    19    45 1   
    37    19    46 1   
    38    19    47 1   
    39    20    21 ar  
    40    20    29 ar  
    41    21    22 ar  
    42    21    26 ar  
    43    22    23 ar  
    44    22    48 1   
    45    23    24 ar  
    46    23    49 1   
    47    24    25 ar  
    48    24    50 1   
    49    25    26 ar  
    50    25    51 1   
    51    26    27 ar  
    52    27    28 ar  
    53    27    52 1   
    54    28    29 ar  
    55    28    53 1   
    56    29    54 1   
@<TRIPOS>SUBSTRUCTURE
     1 Y94         1 TEMP              0 ****  ****    0 ROOT
