@<TRIPOS>MOLECULE
Y94
   54    56     1     0     0
SMALL
abcg2


@<TRIPOS>ATOM
      1 O26         51.2430    37.5150    -0.4280 o          1 Y94      -0.619100
      2 C24         52.1250    36.7100    -0.1680 c          1 Y94       0.658100
      3 N25         53.4440    36.9950    -0.2860 ns         1 Y94      -0.518900
      4 C27         53.9210    38.3300    -0.5750 c3         1 Y94       0.144200
      5 C28         54.0710    39.1700     0.6590 c2         1 Y94      -0.250200
      6 C29         55.2120    39.7280     1.0430 c2         1 Y94      -0.307000
      7 N01         51.8770    35.4260     0.2590 ns         1 Y94      -0.164000
      8 C19         50.6340    34.7940     0.3110 ca         1 Y94      -0.018000
      9 C13         50.6100    33.4050     0.1800 ca         1 Y94      -0.150000
     10 C21         49.4270    35.4550     0.5260 ca         1 Y94      -0.102000
     11 C17         48.2450    34.7300     0.5720 ca         1 Y94      -0.097000
     12 C10         48.1970    33.3500     0.4120 ca         1 Y94      -0.048300
     13 C16         46.8820    32.6270     0.4690 c3         1 Y94      -0.046800
     14 C3          49.4190    32.6930     0.2270 ca         1 Y94      -0.122600
     15 C1          49.4660    31.2130     0.0030 c          1 Y94       0.611700
     16 O7          48.7890    30.6670    -0.8540 o          1 Y94      -0.584100
     17 N2          50.3080    30.5440     0.8100 ns         1 Y94      -0.509900
     18 C6          50.5250    29.1180     0.7030 c3         1 Y94       0.159000
     19 C01         51.0240    28.5930     2.0480 c3         1 Y94      -0.104100
     20 C5          51.4930    28.7550    -0.4090 ca         1 Y94      -0.077300
     21 C8          51.4350    27.4670    -1.0200 ca         1 Y94      -0.018000
     22 C14         50.4740    26.4860    -0.6650 ca         1 Y94      -0.101000
     23 C20         50.4470    25.2630    -1.2810 ca         1 Y94      -0.106000
     24 C22         51.3810    24.9460    -2.2870 ca         1 Y94      -0.107000
     25 C18         52.3240    25.8660    -2.6520 ca         1 Y94      -0.098000
     26 C11         52.3770    27.1380    -2.0340 ca         1 Y94      -0.036000
     27 C12         53.3560    28.0860    -2.4130 ca         1 Y94      -0.095000
     28 C9          53.3950    29.3110    -1.8120 ca         1 Y94      -0.108000
     29 C4          52.4610    29.6400    -0.8090 ca         1 Y94      -0.099000
     30 H1          54.1270    36.3270     0.0320 hn         1 Y94       0.306500
     31 H2          54.8780    38.2430    -1.0910 h1         1 Y94       0.064200
     32 H3          53.2280    38.8040    -1.2710 h1         1 Y94       0.064200
     33 H4          53.1720    39.3120     1.2520 ha         1 Y94       0.185000
     34 H5          55.2760    40.3320     1.9390 ha         1 Y94       0.163000
     35 H6          56.1260    39.6030     0.4740 ha         1 Y94       0.163000
     36 H7          52.6710    34.8090     0.3370 hn         1 Y94       0.141000
     37 H8          51.5440    32.8780     0.0180 ha         1 Y94       0.107000
     38 H9          49.3940    36.5220     0.6670 ha         1 Y94       0.146000
     39 H10         47.3210    35.2680     0.7500 ha         1 Y94       0.117000
     40 H11         46.9160    31.7670     1.1380 hc         1 Y94       0.049700
     41 H12         46.0990    33.2940     0.8270 hc         1 Y94       0.049700
     42 H13         46.5820    32.2580    -0.5120 hc         1 Y94       0.049700
     43 H14         50.8290    31.0580     1.5040 hn         1 Y94       0.316500
     44 H15         49.5550    28.6680     0.4850 h1         1 Y94       0.081700
     45 H16         50.2860    28.7730     2.8300 hc         1 Y94       0.045367
     46 H17         51.2130    27.5220     1.9990 hc         1 Y94       0.045367
     47 H18         51.9560    29.0860     2.3300 hc         1 Y94       0.045367
     48 H19         49.7440    26.6880     0.1070 ha         1 Y94       0.113000
     49 H20         49.7030    24.5330    -0.9900 ha         1 Y94       0.112000
     50 H21         51.3490    23.9760    -2.7650 ha         1 Y94       0.113000
     51 H22         53.0490    25.6340    -3.4220 ha         1 Y94       0.112000
     52 H23         54.0740    27.8260    -3.1810 ha         1 Y94       0.113000
     53 H24         54.1410    30.0390    -2.1000 ha         1 Y94       0.110000
     54 H25         52.5220    30.6190    -0.3530 ha         1 Y94       0.103000
@<TRIPOS>BOND
     1     1     2 2   
     2     2     3 1   
     3     2     7 1   
     4     3     4 1   
     5     3    30 1   
     6     4     5 1   
     7     4    31 1   
     8     4    32 1   
     9     5     6 2   
    10     5    33 1   
    11     6    34 1   
    12     6    35 1   
    13     7     8 1   
    14     7    36 1   
    15     8     9 ar  
    16     8    10 ar  
    17     9    14 ar  
    18     9    37 1   
    19    10    11 ar  
    20    10    38 1   
    21    11    12 ar  
    22    11    39 1   
    23    12    13 1   
    24    12    14 ar  
    25    13    40 1   
    26    13    41 1   
    27    13    42 1   
    28    14    15 1   
    29    15    16 2   
    30    15    17 1   
    31    17    18 1   
    32    17    43 1   
    33    18    19 1   
    34    18    20 1   
    35    18    44 1   
    36    19    45 1   
    37    19    46 1   
    38    19    47 1   
    39    20    21 ar  
    40    20    29 ar  
    41    21    22 ar  
    42    21    26 ar  
    43    22    23 ar  
    44    22    48 1   
    45    23    24 ar  
    46    23    49 1   
    47    24    25 ar  
    48    24    50 1   
    49    25    26 ar  
    50    25    51 1   
    51    26    27 ar  
    52    27    28 ar  
    53    27    52 1   
    54    28    29 ar  
    55    28    53 1   
    56    29    54 1   
@<TRIPOS>SUBSTRUCTURE
     1 Y94         1 TEMP              0 ****  ****    0 ROOT
