@<TRIPOS>MOLECULE
Y95
   51    53     1     0     0
SMALL
No Charge or Current Charge


@<TRIPOS>ATOM
      1 O28         54.9500    38.8980     0.0950 o          1 Y95      -0.628100
      2 C27         54.5740    37.7510     0.2200 c          1 Y95       0.671100
      3 N29         55.4460    36.7460     0.3630 nt         1 Y95      -0.603000
      4 N25         53.2560    37.4260     0.2220 ns         1 Y95      -0.501500
      5 C24         52.6150    36.2210     0.3450 c          1 Y95       0.681100
      6 O26         53.2100    35.1610     0.4900 o          1 Y95      -0.630100
      7 N01         51.2360    36.3510     0.2970 ns         1 Y95      -0.151000
      8 C19         50.1850    35.3930     0.3540 ca         1 Y95      -0.022000
      9 C13         50.3950    34.0010     0.2610 ca         1 Y95      -0.113000
     10 C3          49.3150    33.0810     0.3160 ca         1 Y95      -0.122600
     11 C10         47.9930    33.5930     0.4610 ca         1 Y95      -0.045300
     12 C16         46.7640    32.6920     0.5670 c3         1 Y95      -0.047800
     13 C17         47.7930    34.9850     0.5410 ca         1 Y95      -0.090000
     14 C21         48.8750    35.8740     0.4870 ca         1 Y95      -0.148000
     15 C1          49.6010    31.5890     0.2040 c          1 Y95       0.610700
     16 O7          48.8020    30.7810    -0.2500 o          1 Y95      -0.583100
     17 N2          50.8620    31.1940     0.5970 ns         1 Y95      -0.507900
     18 C6          51.3720    29.8240     0.5210 c3         1 Y95       0.163000
     19 C01         52.3780    29.5750     1.6590 c3         1 Y95      -0.106100
     20 C5          51.9900    29.4980    -0.8520 ca         1 Y95      -0.080300
     21 C8          51.9580    28.1860    -1.4100 ca         1 Y95      -0.017000
     22 C11         52.5310    27.9560    -2.6880 ca         1 Y95      -0.037000
     23 C12         53.1410    29.0060    -3.3950 ca         1 Y95      -0.098000
     24 C9          53.1960    30.2880    -2.8380 ca         1 Y95      -0.106000
     25 C4          52.6300    30.5310    -1.5780 ca         1 Y95      -0.094000
     26 C18         52.5040    26.6710    -3.2640 ca         1 Y95      -0.097000
     27 C22         51.9160    25.5990    -2.5770 ca         1 Y95      -0.109000
     28 C20         51.3570    25.8080    -1.3090 ca         1 Y95      -0.107000
     29 C14         51.3770    27.0870    -0.7270 ca         1 Y95      -0.101000
     30 H1          56.4350    36.9390     0.3680 hn         1 Y95       0.343000
     31 H2          55.0900    35.8050     0.4650 hn         1 Y95       0.343000
     32 H3          52.6520    38.2230     0.1100 hn         1 Y95       0.330500
     33 H4          50.9080    37.3030     0.2030 hn         1 Y95       0.154000
     34 H5          51.4010    33.6280     0.1060 ha         1 Y95       0.150000
     35 H6          46.9130    31.9000     1.3110 hc         1 Y95       0.051367
     36 H7          45.8730    33.2510     0.8740 hc         1 Y95       0.051367
     37 H8          46.5350    32.2210    -0.3960 hc         1 Y95       0.051367
     38 H9          46.7880    35.3860     0.6510 ha         1 Y95       0.118000
     39 H10         48.6900    36.9440     0.5530 ha         1 Y95       0.112000
     40 H11         51.4600    31.9070     0.9920 hn         1 Y95       0.320500
     41 H12         50.5100    29.1680     0.6930 h1         1 Y95       0.074700
     42 H13         51.9150    29.7700     2.6330 hc         1 Y95       0.045367
     43 H14         52.7230    28.5340     1.6480 hc         1 Y95       0.045367
     44 H15         53.2540    30.2270     1.5530 hc         1 Y95       0.045367
     45 H16         53.5820    28.8270    -4.3730 ha         1 Y95       0.112000
     46 H17         53.6780    31.0970    -3.3820 ha         1 Y95       0.114000
     47 H18         52.6960    31.5360    -1.1700 ha         1 Y95       0.114000
     48 H19         52.9430    26.5000    -4.2440 ha         1 Y95       0.111000
     49 H20         51.8990    24.6080    -3.0240 ha         1 Y95       0.112000
     50 H21         50.9070    24.9760    -0.7720 ha         1 Y95       0.111000
     51 H22         50.9430    27.1930     0.2610 ha         1 Y95       0.111000
@<TRIPOS>BOND
     1     1     2 2   
     2     2     3 1   
     3     2     4 1   
     4     3    30 1   
     5     3    31 1   
     6     4     5 1   
     7     4    32 1   
     8     5     6 2   
     9     5     7 1   
    10     7     8 1   
    11     7    33 1   
    12     8     9 ar  
    13     8    14 ar  
    14     9    10 ar  
    15     9    34 1   
    16    10    11 ar  
    17    10    15 1   
    18    11    12 1   
    19    11    13 ar  
    20    12    35 1   
    21    12    36 1   
    22    12    37 1   
    23    13    14 ar  
    24    13    38 1   
    25    14    39 1   
    26    15    16 2   
    27    15    17 1   
    28    17    18 1   
    29    17    40 1   
    30    18    19 1   
    31    18    20 1   
    32    18    41 1   
    33    19    42 1   
    34    19    43 1   
    35    19    44 1   
    36    20    21 ar  
    37    20    25 ar  
    38    21    22 ar  
    39    21    29 ar  
    40    22    23 ar  
    41    22    26 ar  
    42    23    24 ar  
    43    23    45 1   
    44    24    25 ar  
    45    24    46 1   
    46    25    47 1   
    47    26    27 ar  
    48    26    48 1   
    49    27    28 ar  
    50    27    49 1   
    51    28    29 ar  
    52    28    50 1   
    53    29    51 1   
@<TRIPOS>SUBSTRUCTURE
     1 Y95         1 TEMP              0 ****  ****    0 ROOT
