@<TRIPOS>MOLECULE
Y95
   51    53     1     0     0
SMALL
abcg2


@<TRIPOS>ATOM
      1 O28         54.9940    38.7390    -0.2090 o          1 Y95      -0.628100
      2 C27         54.5890    37.5880    -0.2290 c          1 Y95       0.671100
      3 N29         55.3620    36.5180    -0.4390 nt         1 Y95      -0.603000
      4 N25         53.2240    37.3630    -0.0260 ns         1 Y95      -0.501500
      5 C24         52.5390    36.1680     0.0090 c          1 Y95       0.681100
      6 O26         53.0720    35.0840    -0.1560 o          1 Y95      -0.630100
      7 N01         51.2110    36.3370     0.2450 ns         1 Y95      -0.151000
      8 C19         50.2190    35.3600     0.3610 ca         1 Y95      -0.022000
      9 C13         50.4220    33.9940     0.1790 ca         1 Y95      -0.113000
     10 C3          49.3590    33.1020     0.3010 ca         1 Y95      -0.122600
     11 C10         48.0680    33.5330     0.6140 ca         1 Y95      -0.045300
     12 C16         46.9070    32.5940     0.7680 c3         1 Y95      -0.047800
     13 C17         47.8930    34.9000     0.8080 ca         1 Y95      -0.090000
     14 C21         48.9360    35.8000     0.6810 ca         1 Y95      -0.148000
     15 C1          49.6390    31.6540     0.0360 c          1 Y95       0.610700
     16 O7          48.9920    31.0030    -0.7690 o          1 Y95      -0.583100
     17 N2          50.6630    31.1390     0.7400 ns         1 Y95      -0.507900
     18 C6          51.1090    29.7730     0.5740 c3         1 Y95       0.163000
     19 C01         51.9050    29.3550     1.8070 c3         1 Y95      -0.106100
     20 C5          51.9320    29.5840    -0.6880 ca         1 Y95      -0.080300
     21 C8          51.9560    28.3240    -1.3550 ca         1 Y95      -0.017000
     22 C11         52.7710    28.1690    -2.5110 ca         1 Y95      -0.037000
     23 C12         53.5480    29.2570    -2.9710 ca         1 Y95      -0.098000
     24 C9          53.5190    30.4500    -2.3090 ca         1 Y95      -0.106000
     25 C4          52.7090    30.6070    -1.1670 ca         1 Y95      -0.094000
     26 C18         52.7990    26.9250    -3.1850 ca         1 Y95      -0.097000
     27 C22         52.0580    25.8660    -2.7390 ca         1 Y95      -0.109000
     28 C20         51.2500    26.0120    -1.5940 ca         1 Y95      -0.107000
     29 C14         51.2020    27.2040    -0.9220 ca         1 Y95      -0.101000
     30 H1          56.3510    36.6590    -0.5510 hn         1 Y95       0.343000
     31 H2          54.9920    35.5820    -0.4200 hn         1 Y95       0.343000
     32 H3          52.7100    38.2180     0.1250 hn         1 Y95       0.330500
     33 H4          50.8820    37.2810     0.3850 hn         1 Y95       0.154000
     34 H5          51.3980    33.6200    -0.0820 ha         1 Y95       0.150000
     35 H6          47.1550    31.7360     1.3930 hc         1 Y95       0.051367
     36 H7          46.0640    33.1050     1.2320 hc         1 Y95       0.051367
     37 H8          46.5730    32.2050    -0.1930 hc         1 Y95       0.051367
     38 H9          46.9130    35.2760     1.0730 ha         1 Y95       0.118000
     39 H10         48.7480    36.8560     0.8360 ha         1 Y95       0.112000
     40 H11         51.1120    31.7120     1.4370 hn         1 Y95       0.320500
     41 H12         50.2140    29.1510     0.5150 h1         1 Y95       0.074700
     42 H13         51.2860    29.4100     2.7040 hc         1 Y95       0.045367
     43 H14         52.2590    28.3300     1.7060 hc         1 Y95       0.045367
     44 H15         52.7770    29.9950     1.9440 hc         1 Y95       0.045367
     45 H16         54.1660    29.1280    -3.8520 ha         1 Y95       0.112000
     46 H17         54.1170    31.2830    -2.6550 ha         1 Y95       0.114000
     47 H18         52.7090    31.5660    -0.6640 ha         1 Y95       0.114000
     48 H19         53.4230    26.8260    -4.0650 ha         1 Y95       0.111000
     49 H20         52.0890    24.9190    -3.2610 ha         1 Y95       0.112000
     50 H21         50.6620    25.1740    -1.2420 ha         1 Y95       0.111000
     51 H22         50.5710    27.2760    -0.0470 ha         1 Y95       0.111000
@<TRIPOS>BOND
     1     1     2 2   
     2     2     3 1   
     3     2     4 1   
     4     3    30 1   
     5     3    31 1   
     6     4     5 1   
     7     4    32 1   
     8     5     6 2   
     9     5     7 1   
    10     7     8 1   
    11     7    33 1   
    12     8     9 ar  
    13     8    14 ar  
    14     9    10 ar  
    15     9    34 1   
    16    10    11 ar  
    17    10    15 1   
    18    11    12 1   
    19    11    13 ar  
    20    12    35 1   
    21    12    36 1   
    22    12    37 1   
    23    13    14 ar  
    24    13    38 1   
    25    14    39 1   
    26    15    16 2   
    27    15    17 1   
    28    17    18 1   
    29    17    40 1   
    30    18    19 1   
    31    18    20 1   
    32    18    41 1   
    33    19    42 1   
    34    19    43 1   
    35    19    44 1   
    36    20    21 ar  
    37    20    25 ar  
    38    21    22 ar  
    39    21    29 ar  
    40    22    23 ar  
    41    22    26 ar  
    42    23    24 ar  
    43    23    45 1   
    44    24    25 ar  
    45    24    46 1   
    46    25    47 1   
    47    26    27 ar  
    48    26    48 1   
    49    27    28 ar  
    50    27    49 1   
    51    28    29 ar  
    52    28    50 1   
    53    29    51 1   
@<TRIPOS>SUBSTRUCTURE
     1 Y95         1 TEMP              0 ****  ****    0 ROOT
