@<TRIPOS>MOLECULE
Y96
   45    47     1     0     0
SMALL
No Charge or Current Charge


@<TRIPOS>ATOM
      1 O           49.1570    30.8840    -0.5790 o          1 Y96      -0.584100
      2 C           49.8610    31.5600     0.1570 c          1 Y96       0.612700
      3 C13         49.6920    33.0620     0.3340 ca         1 Y96      -0.155600
      4 C19         48.4430    33.7160     0.1290 ca         1 Y96      -0.007300
      5 C20         47.1640    32.9640    -0.2320 c3         1 Y96      -0.054800
      6 C18         48.3550    35.1120     0.2950 ca         1 Y96      -0.130000
      7 C17         49.4750    35.8720     0.6590 ca         1 Y96      -0.053000
      8 C15         50.7170    35.2450     0.8670 ca         1 Y96      -0.152900
      9 C21         51.9380    36.0250     1.2490 ce         1 Y96       0.422800
     10 N22         51.9110    37.3190     1.4040 n2         1 Y96      -0.333700
     11 O23         53.1440    37.8980     1.7630 oh         1 Y96      -0.512000
     12 C14         50.8140    33.8500     0.7030 ca         1 Y96      -0.070000
     13 N           50.9120    30.9930     0.8460 ns         1 Y96      -0.510900
     14 C1          51.2900    29.5800     0.7810 c3         1 Y96       0.161000
     15 C12         51.9280    29.1470     2.1140 c3         1 Y96      -0.106100
     16 C2          52.2170    29.2680    -0.4090 ca         1 Y96      -0.077300
     17 C7          52.2110    28.0020    -1.0660 ca         1 Y96      -0.018000
     18 C8          51.3710    26.9380    -0.6520 ca         1 Y96      -0.102000
     19 C9          51.3870    25.7040    -1.3250 ca         1 Y96      -0.106000
     20 C10         52.2400    25.5070    -2.4190 ca         1 Y96      -0.108000
     21 C11         53.0870    26.5440    -2.8380 ca         1 Y96      -0.097000
     22 C6          53.0800    27.7820    -2.1680 ca         1 Y96      -0.036000
     23 C5          53.9490    28.7970    -2.6020 ca         1 Y96      -0.096000
     24 C4          53.9730    30.0310    -1.9430 ca         1 Y96      -0.107000
     25 C3          53.1190    30.2630    -0.8560 ca         1 Y96      -0.096000
     26 H1          46.9980    32.1130     0.4400 hc         1 Y96       0.053367
     27 H2          46.2770    33.6050    -0.1550 hc         1 Y96       0.053367
     28 H3          47.2030    32.5890    -1.2610 hc         1 Y96       0.053367
     29 H4          47.4050    35.6190     0.1430 ha         1 Y96       0.119000
     30 H5          49.3670    36.9490     0.7770 ha         1 Y96       0.132000
     31 H6          52.8580    35.4530     1.3900 h4         1 Y96       0.005800
     32 H7          52.9630    38.8670     1.8420 ho         1 Y96       0.471000
     33 H8          51.7880    33.3870     0.8420 ha         1 Y96       0.114000
     34 H9          51.4350    31.6020     1.4600 hn         1 Y96       0.317500
     35 H10         50.3540    29.0210     0.6650 h1         1 Y96       0.076700
     36 H11         51.2430    29.3350     2.9490 hc         1 Y96       0.045700
     37 H12         52.1600    28.0750     2.0990 hc         1 Y96       0.045700
     38 H13         52.8580    29.6970     2.2970 hc         1 Y96       0.045700
     39 H14         50.7020    27.0350     0.1960 ha         1 Y96       0.111000
     40 H15         50.7350    24.8980    -0.9950 ha         1 Y96       0.112000
     41 H16         52.2510    24.5510    -2.9390 ha         1 Y96       0.113000
     42 H17         53.7520    26.3820    -3.6830 ha         1 Y96       0.112000
     43 H18         54.6150    28.6260    -3.4460 ha         1 Y96       0.114000
     44 H19         54.6550    30.8110    -2.2740 ha         1 Y96       0.113000
     45 H20         53.1670    31.2290    -0.3610 ha         1 Y96       0.106000
@<TRIPOS>BOND
     1     1     2 2   
     2     2     3 1   
     3     2    13 1   
     4     3     4 ar  
     5     3    12 ar  
     6     4     5 1   
     7     4     6 ar  
     8     5    26 1   
     9     5    27 1   
    10     5    28 1   
    11     6     7 ar  
    12     6    29 1   
    13     7     8 ar  
    14     7    30 1   
    15     8     9 1   
    16     8    12 ar  
    17     9    10 2   
    18     9    31 1   
    19    10    11 1   
    20    11    32 1   
    21    12    33 1   
    22    13    14 1   
    23    13    34 1   
    24    14    15 1   
    25    14    16 1   
    26    14    35 1   
    27    15    36 1   
    28    15    37 1   
    29    15    38 1   
    30    16    17 ar  
    31    16    25 ar  
    32    17    18 ar  
    33    17    22 ar  
    34    18    19 ar  
    35    18    39 1   
    36    19    20 ar  
    37    19    40 1   
    38    20    21 ar  
    39    20    41 1   
    40    21    22 ar  
    41    21    42 1   
    42    22    23 ar  
    43    23    24 ar  
    44    23    43 1   
    45    24    25 ar  
    46    24    44 1   
    47    25    45 1   
@<TRIPOS>SUBSTRUCTURE
     1 Y96         1 TEMP              0 ****  ****    0 ROOT
