@<TRIPOS>MOLECULE
Y96
   45    47     1     0     0
SMALL
bcc


@<TRIPOS>ATOM
      1 O           49.4140    31.0930    -0.9710 o          1 Y96      -0.584100
      2 C           49.9520    31.6350    -0.0180 c          1 Y96       0.679700
      3 C13         49.7670    33.0900     0.2830 ca         1 Y96      -0.155600
      4 C19         48.4900    33.6620     0.3190 ca         1 Y96      -0.007300
      5 C20         47.2350    32.8630     0.1160 c3         1 Y96      -0.054800
      6 C18         48.4020    35.0300     0.5760 ca         1 Y96      -0.148000
      7 C17         49.5230    35.8160     0.7690 ca         1 Y96      -0.071000
      8 C15         50.7940    35.2460     0.7200 ca         1 Y96      -0.152900
      9 C21         52.0220    36.0160     0.9100 ce         1 Y96       0.422800
     10 N22         51.9820    37.2590     1.1620 n2         1 Y96      -0.432200
     11 O23         53.2180    37.8090     1.3070 oh         1 Y96      -0.374500
     12 C14         50.8950    33.8790     0.4830 ca         1 Y96      -0.088000
     13 N           50.7630    30.9820     0.8330 ns         1 Y96      -0.577900
     14 C1          51.0910    29.5810     0.6790 c3         1 Y96       0.161000
     15 C12         51.5920    29.0460     2.0180 c3         1 Y96      -0.106100
     16 C2          52.1140    29.3380    -0.4160 ca         1 Y96      -0.077300
     17 C7          52.1860    28.0690    -1.0630 ca         1 Y96      -0.018000
     18 C8          51.3090    26.9960    -0.7630 ca         1 Y96      -0.120000
     19 C9          51.4100    25.7930    -1.4090 ca         1 Y96      -0.124000
     20 C10         52.3950    25.5910    -2.3960 ca         1 Y96      -0.126000
     21 C11         53.2590    26.6030    -2.7100 ca         1 Y96      -0.115000
     22 C6          53.1810    27.8560    -2.0580 ca         1 Y96      -0.036000
     23 C5          54.0810    28.8970    -2.3830 ca         1 Y96      -0.114000
     24 C4          53.9980    30.1000    -1.7430 ca         1 Y96      -0.125000
     25 C3          53.0130    30.3140    -0.7590 ca         1 Y96      -0.114000
     26 H1          47.2310    31.9520     0.7140 hc         1 Y96       0.053367
     27 H2          46.3620    33.4500     0.3980 hc         1 Y96       0.053367
     28 H3          47.1150    32.5660    -0.9250 hc         1 Y96       0.053367
     29 H4          47.4230    35.4910     0.6290 ha         1 Y96       0.137000
     30 H5          49.4080    36.8760     0.9560 ha         1 Y96       0.150000
     31 H6          52.9660    35.4770     0.8270 h4         1 Y96       0.005800
     32 H7          53.0470    38.7370     1.4980 ho         1 Y96       0.432000
     33 H8          51.8810    33.4290     0.4360 ha         1 Y96       0.132000
     34 H9          51.1290    31.4730     1.6340 hn         1 Y96       0.317500
     35 H10         50.1640    29.0640     0.4180 h1         1 Y96       0.076700
     36 H11         50.8260    29.1470     2.7870 hc         1 Y96       0.045700
     37 H12         51.8550    27.9920     1.9400 hc         1 Y96       0.045700
     38 H13         52.4830    29.5870     2.3390 hc         1 Y96       0.045700
     39 H14         50.5430    27.1130    -0.0090 ha         1 Y96       0.129000
     40 H15         50.7280    24.9910    -1.1590 ha         1 Y96       0.130000
     41 H16         52.4640    24.6360    -2.9000 ha         1 Y96       0.131000
     42 H17         54.0200    26.4590    -3.4680 ha         1 Y96       0.130000
     43 H18         54.8340    28.7250    -3.1430 ha         1 Y96       0.132000
     44 H19         54.6860    30.8990    -1.9880 ha         1 Y96       0.131000
     45 H20         52.9720    31.2800    -0.2720 ha         1 Y96       0.124000
@<TRIPOS>BOND
     1     1     2 2   
     2     2     3 1   
     3     2    13 1   
     4     3     4 ar  
     5     3    12 ar  
     6     4     5 1   
     7     4     6 ar  
     8     5    26 1   
     9     5    27 1   
    10     5    28 1   
    11     6     7 ar  
    12     6    29 1   
    13     7     8 ar  
    14     7    30 1   
    15     8     9 1   
    16     8    12 ar  
    17     9    10 2   
    18     9    31 1   
    19    10    11 1   
    20    11    32 1   
    21    12    33 1   
    22    13    14 1   
    23    13    34 1   
    24    14    15 1   
    25    14    16 1   
    26    14    35 1   
    27    15    36 1   
    28    15    37 1   
    29    15    38 1   
    30    16    17 ar  
    31    16    25 ar  
    32    17    18 ar  
    33    17    22 ar  
    34    18    19 ar  
    35    18    39 1   
    36    19    20 ar  
    37    19    40 1   
    38    20    21 ar  
    39    20    41 1   
    40    21    22 ar  
    41    21    42 1   
    42    22    23 ar  
    43    23    24 ar  
    44    23    43 1   
    45    24    25 ar  
    46    24    44 1   
    47    25    45 1   
@<TRIPOS>SUBSTRUCTURE
     1 Y96         1 TEMP              0 ****  ****    0 ROOT
