@<TRIPOS>MOLECULE
Y99
   49    51     1     0     0
SMALL
abcg2


@<TRIPOS>ATOM
      1 C01        -29.1600    21.3570   -16.7080 c3         1 Y99       0.287000
      2 C02        -27.9050    20.5960   -17.1020 c3         1 Y99      -0.071400
      3 C03        -28.1120    19.0850   -16.9440 c3         1 Y99      -0.087100
      4 C04        -27.4300    21.0020   -18.4840 ca         1 Y99      -0.090300
      5 C05        -28.0790    20.5720   -19.6420 ca         1 Y99      -0.086500
      6 C06        -27.6170    20.9520   -20.8960 ca         1 Y99      -0.093000
      7 C07        -26.4950    21.7670   -21.0310 ca         1 Y99      -0.060300
      8 C08        -26.0010    22.1840   -22.3870 c3         1 Y99      -0.104100
      9 C09        -26.6770    23.4550   -22.9050 c          1 Y99       0.602100
     10 C11        -26.8260    25.1440   -24.6690 c6         1 Y99       0.080500
     11 C12        -25.7190    26.1650   -24.9060 c6         1 Y99       0.203300
     12 C14        -24.2390    26.1740   -26.8810 ca         1 Y99       0.590900
     13 C17        -23.5700    27.4930   -29.1280 ca         1 Y99       0.294000
     14 C18        -23.2880    28.2560   -30.3000 cg         1 Y99       0.232000
     15 C20        -22.8550    26.3230   -28.8200 ca         1 Y99      -0.036000
     16 C21        -23.1880    25.6520   -27.6810 ca         1 Y99      -0.197000
     17 C22        -24.1120    24.3550   -25.1920 c6         1 Y99       0.203300
     18 C23        -25.2250    23.3360   -24.9460 c6         1 Y99       0.080500
     19 C25        -25.8440    22.1910   -19.8750 ca         1 Y99      -0.093000
     20 C26        -26.3060    21.8150   -18.6190 ca         1 Y99      -0.086500
     21 F21        -30.2320    21.0580   -17.4780 f          1 Y99      -0.115667
     22 F22        -29.5250    21.0970   -15.4300 f          1 Y99      -0.115667
     23 F23        -28.9900    22.6970   -16.7880 f          1 Y99      -0.115667
     24 N10        -26.2720    23.9150   -24.1140 n          1 Y99      -0.425800
     25 N13        -24.6650    25.5870   -25.7430 nh         1 Y99      -0.783300
     26 N15        -24.8720    27.3230   -27.2460 nb         1 Y99      -0.412000
     27 N16        -24.5420    27.9590   -28.3420 nb         1 Y99      -0.227000
     28 N19        -23.0480    28.8650   -31.2500 n1         1 Y99      -0.436000
     29 O24        -27.5520    24.0260   -22.2530 o          1 Y99      -0.581100
     30 H1         -27.1560    20.9240   -16.3790 hc         1 Y99       0.079700
     31 H2         -28.3960    18.8360   -15.9220 hc         1 Y99       0.051700
     32 H3         -28.8810    18.7120   -17.6190 hc         1 Y99       0.051700
     33 H4         -27.1780    18.5740   -17.1750 hc         1 Y99       0.051700
     34 H5         -28.9510    19.9340   -19.5730 ha         1 Y99       0.118500
     35 H6         -28.1350    20.6060   -21.7830 ha         1 Y99       0.113500
     36 H7         -26.1730    21.3840   -23.1120 hc         1 Y99       0.063200
     37 H8         -24.9230    22.3510   -22.3520 hc         1 Y99       0.063200
     38 H9         -27.5590    25.5410   -23.9750 h1         1 Y99       0.067950
     39 H10        -27.3220    24.9140   -25.6170 h1         1 Y99       0.067950
     40 H11        -25.2780    26.4560   -23.9470 h1         1 Y99       0.069200
     41 H12        -26.1200    27.0470   -25.3900 h1         1 Y99       0.069200
     42 H13        -22.0640    25.9740   -29.4700 ha         1 Y99       0.138000
     43 H14        -22.6540    24.7560   -27.4120 ha         1 Y99       0.130000
     44 H15        -23.3820    23.9190   -25.8620 h1         1 Y99       0.069200
     45 H16        -23.6120    24.5860   -24.2450 h1         1 Y99       0.069200
     46 H17        -25.6610    23.0410   -25.9050 h1         1 Y99       0.067950
     47 H18        -24.7990    22.4540   -24.4830 h1         1 Y99       0.067950
     48 H19        -24.9640    22.8190   -19.9570 ha         1 Y99       0.113500
     49 H20        -25.7840    22.1530   -17.7320 ha         1 Y99       0.118500
@<TRIPOS>BOND
     1     1     2 1   
     2     1    21 1   
     3     1    22 1   
     4     1    23 1   
     5     2     3 1   
     6     2     4 1   
     7     2    30 1   
     8     3    31 1   
     9     3    32 1   
    10     3    33 1   
    11     4     5 ar  
    12     4    20 ar  
    13     5     6 ar  
    14     5    34 1   
    15     6     7 ar  
    16     6    35 1   
    17     7     8 1   
    18     7    19 ar  
    19     8     9 1   
    20     8    36 1   
    21     8    37 1   
    22     9    24 1   
    23     9    29 2   
    24    10    11 1   
    25    10    24 1   
    26    10    38 1   
    27    10    39 1   
    28    11    25 1   
    29    11    40 1   
    30    11    41 1   
    31    12    16 ar  
    32    12    25 1   
    33    12    26 ar  
    34    13    14 1   
    35    13    15 ar  
    36    13    27 ar  
    37    14    28 3   
    38    15    16 ar  
    39    15    42 1   
    40    16    43 1   
    41    17    18 1   
    42    17    25 1   
    43    17    44 1   
    44    17    45 1   
    45    18    24 1   
    46    18    46 1   
    47    18    47 1   
    48    19    20 ar  
    49    19    48 1   
    50    20    49 1   
    51    26    27 ar  
@<TRIPOS>SUBSTRUCTURE
     1 Y99         1 TEMP              0 ****  ****    0 ROOT
