@<TRIPOS>MOLECULE
Y99
   49    51     1     0     0
SMALL
No Charge or Current Charge


@<TRIPOS>ATOM
      1 C01        -30.0640    20.8380   -20.1540 c3         1 Y99       0.287000
      2 C02        -28.9680    20.5580   -19.0850 c3         1 Y99      -0.071400
      3 C03        -28.7990    19.0480   -18.7740 c3         1 Y99      -0.087100
      4 C04        -27.6280    21.2170   -19.4420 ca         1 Y99      -0.090300
      5 C05        -26.8020    20.6940   -20.4580 ca         1 Y99      -0.086500
      6 C06        -25.5810    21.3140   -20.7760 ca         1 Y99      -0.093000
      7 C07        -25.1670    22.4700   -20.0890 ca         1 Y99      -0.060300
      8 C08        -23.8460    23.1520   -20.4370 c3         1 Y99      -0.104100
      9 C09        -24.0810    24.5670   -20.9990 c          1 Y99       0.602100
     10 C11        -24.3280    26.1440   -22.9310 c6         1 Y99       0.080500
     11 C12        -24.0870    26.3040   -24.4540 c6         1 Y99       0.203300
     12 C14        -25.2650    25.5720   -26.5640 ca         1 Y99       0.590900
     13 C17        -26.1600    26.3310   -29.0510 ca         1 Y99       0.294000
     14 C18        -26.6470    26.7970   -30.3240 cg         1 Y99       0.232000
     15 C20        -25.6220    25.0380   -28.9010 ca         1 Y99      -0.036000
     16 C21        -25.1630    24.6480   -27.6250 ca         1 Y99      -0.197000
     17 C22        -24.5270    23.9010   -24.8090 c6         1 Y99       0.203300
     18 C23        -24.7450    23.6970   -23.2840 c6         1 Y99       0.080500
     19 C25        -25.9880    22.9900   -19.0700 ca         1 Y99      -0.093000
     20 C26        -27.2080    22.3710   -18.7520 ca         1 Y99      -0.086500
     21 F21        -29.7680    20.2550   -21.3390 f          1 Y99      -0.115667
     22 F22        -31.2660    20.3670   -19.7510 f          1 Y99      -0.115667
     23 F23        -30.1980    22.1670   -20.3690 f          1 Y99      -0.115667
     24 N10        -24.1520    24.7550   -22.4010 n          1 Y99      -0.425800
     25 N13        -24.8410    25.2890   -25.2430 nh         1 Y99      -0.783300
     26 N15        -25.7900    26.8060   -26.7740 nb         1 Y99      -0.412000
     27 N16        -26.2320    27.1830   -27.9960 nb         1 Y99      -0.227000
     28 N19        -27.0390    27.1640   -31.3630 n1         1 Y99      -0.436000
     29 O24        -24.1720    25.5230   -20.2380 o          1 Y99      -0.581100
     30 H1         -29.3340    21.0130   -18.1560 hc         1 Y99       0.079700
     31 H2         -29.7320    18.6230   -18.3850 hc         1 Y99       0.051700
     32 H3         -28.5170    18.4800   -19.6690 hc         1 Y99       0.051700
     33 H4         -28.0200    18.8980   -18.0160 hc         1 Y99       0.051700
     34 H5         -27.1010    19.8060   -21.0100 ha         1 Y99       0.118500
     35 H6         -24.9600    20.8880   -21.5610 ha         1 Y99       0.113500
     36 H7         -23.3060    22.5460   -21.1710 hc         1 Y99       0.063200
     37 H8         -23.2390    23.2330   -19.5270 hc         1 Y99       0.063200
     38 H9         -23.6490    26.8280   -22.4020 h1         1 Y99       0.067950
     39 H10        -25.3530    26.4710   -22.7070 h1         1 Y99       0.067950
     40 H11        -23.0090    26.2020   -24.6520 h1         1 Y99       0.069200
     41 H12        -24.3650    27.3300   -24.7350 h1         1 Y99       0.069200
     42 H13        -25.5610    24.3600   -29.7490 ha         1 Y99       0.138000
     43 H14        -24.7320    23.6640   -27.4810 ha         1 Y99       0.130000
     44 H15        -25.1630    23.1720   -25.3330 h1         1 Y99       0.069200
     45 H16        -23.4820    23.6600   -25.0540 h1         1 Y99       0.069200
     46 H17        -25.8270    23.6620   -23.0920 h1         1 Y99       0.067950
     47 H18        -24.3450    22.7090   -23.0300 h1         1 Y99       0.067950
     48 H19        -25.6820    23.8790   -18.5230 ha         1 Y99       0.113500
     49 H20        -27.8280    22.7950   -17.9640 ha         1 Y99       0.118500
@<TRIPOS>BOND
     1     1     2 1   
     2     1    21 1   
     3     1    22 1   
     4     1    23 1   
     5     2     3 1   
     6     2     4 1   
     7     2    30 1   
     8     3    31 1   
     9     3    32 1   
    10     3    33 1   
    11     4     5 ar  
    12     4    20 ar  
    13     5     6 ar  
    14     5    34 1   
    15     6     7 ar  
    16     6    35 1   
    17     7     8 1   
    18     7    19 ar  
    19     8     9 1   
    20     8    36 1   
    21     8    37 1   
    22     9    24 1   
    23     9    29 2   
    24    10    11 1   
    25    10    24 1   
    26    10    38 1   
    27    10    39 1   
    28    11    25 1   
    29    11    40 1   
    30    11    41 1   
    31    12    16 ar  
    32    12    25 1   
    33    12    26 ar  
    34    13    14 1   
    35    13    15 ar  
    36    13    27 ar  
    37    14    28 3   
    38    15    16 ar  
    39    15    42 1   
    40    16    43 1   
    41    17    18 1   
    42    17    25 1   
    43    17    44 1   
    44    17    45 1   
    45    18    24 1   
    46    18    46 1   
    47    18    47 1   
    48    19    20 ar  
    49    19    48 1   
    50    20    49 1   
    51    26    27 ar  
@<TRIPOS>SUBSTRUCTURE
     1 Y99         1 TEMP              0 ****  ****    0 ROOT
