@<TRIPOS>MOLECULE
Y9A
   39    41     1     0     0
SMALL
No Charge or Current Charge


@<TRIPOS>ATOM
      1 C1         -14.6700    25.4200   -10.0970 c3         1 Y9A      -0.048800
      2 C2         -15.3780    24.1150    -9.7650 ca         1 Y9A      -0.066300
      3 C3         -14.6560    23.0290    -9.2370 ca         1 Y9A      -0.112500
      4 C4         -15.3090    21.8220    -8.9340 ca         1 Y9A      -0.090000
      5 C5         -16.6940    21.6840    -9.1590 ca         1 Y9A      -0.137300
      6 C6         -17.4160    22.7750    -9.6830 ca         1 Y9A      -0.090000
      7 C12        -16.1570    18.4980   -13.4760 ca         1 Y9A      -0.137000
      8 C13        -17.0440    19.5200   -13.0820 ca         1 Y9A      -0.079300
      9 C14        -17.2310    19.7840   -11.7100 ca         1 Y9A      -0.172000
     10 C15        -17.8000    20.3280   -14.1280 c3         1 Y9A       0.268100
     11 C16        -20.1380    20.2690   -15.0820 cc         1 Y9A       0.655400
     12 C10        -15.6510    18.0230   -11.1440 ca         1 Y9A      -0.135000
     13 C11        -15.4630    17.7510   -12.5100 ca         1 Y9A      -0.077000
     14 C7         -16.7610    23.9810    -9.9870 ca         1 Y9A      -0.112500
     15 C8         -17.4070    20.3710    -8.8320 c3         1 Y9A       0.209900
     16 C9         -16.5290    19.0400   -10.7360 ca         1 Y9A       0.144100
     17 N1         -19.1310    19.7560   -14.3320 nu         1 Y9A      -0.921100
     18 N2         -20.0880    21.3830   -15.8450 na         1 Y9A      -0.270700
     19 N3         -22.0260    20.5830   -16.0380 nd         1 Y9A      -0.024000
     20 N4         -21.3320    19.7520   -15.1850 nd         1 Y9A      -0.458000
     21 N5         -21.2870    21.5820   -16.4510 nc         1 Y9A      -0.212800
     22 O1         -16.6710    19.2570    -9.3790 os         1 Y9A      -0.342100
     23 H1         -14.3060    25.4130   -11.1310 hc         1 Y9A       0.043700
     24 H2         -15.3420    26.2800    -9.9840 hc         1 Y9A       0.043700
     25 H3         -13.8090    25.5870    -9.4390 hc         1 Y9A       0.043700
     26 H4         -13.5860    23.1190    -9.0620 ha         1 Y9A       0.114500
     27 H5         -14.7370    20.9910    -8.5260 ha         1 Y9A       0.118000
     28 H6         -18.4860    22.6890    -9.8600 ha         1 Y9A       0.118000
     29 H7         -16.0080    18.2810   -14.5310 ha         1 Y9A       0.114000
     30 H8         -17.9270    20.5650   -11.4230 ha         1 Y9A       0.135000
     31 H9         -17.2390    20.3260   -15.0730 h1         1 Y9A       0.045700
     32 H10        -17.8830    21.3710   -13.7910 h1         1 Y9A       0.045700
     33 H11        -15.1130    17.4450   -10.3980 ha         1 Y9A       0.130000
     34 H12        -14.7810    16.9620   -12.8190 ha         1 Y9A       0.118000
     35 H13        -17.3320    24.8120   -10.3950 ha         1 Y9A       0.114500
     36 H14        -18.4370    20.3830    -9.2120 h1         1 Y9A       0.063200
     37 H15        -17.4680    20.2730    -7.7400 h1         1 Y9A       0.063200
     38 H16        -19.3870    18.9200   -13.8110 hn         1 Y9A       0.516000
     39 H17        -19.2960    21.9960   -15.9690 hn         1 Y9A       0.382000
@<TRIPOS>BOND
     1     1     2 1   
     2     1    23 1   
     3     1    24 1   
     4     1    25 1   
     5     2     3 ar  
     6     2    14 ar  
     7     3     4 ar  
     8     3    26 1   
     9     4     5 ar  
    10     4    27 1   
    11     5     6 ar  
    12     5    15 1   
    13     6    14 ar  
    14     6    28 1   
    15     7     8 ar  
    16     7    13 ar  
    17     7    29 1   
    18     8     9 ar  
    19     8    10 1   
    20     9    16 ar  
    21     9    30 1   
    22    10    17 1   
    23    10    31 1   
    24    10    32 1   
    25    11    17 1   
    26    11    18 1   
    27    11    20 2   
    28    12    13 ar  
    29    12    16 ar  
    30    12    33 1   
    31    13    34 1   
    32    14    35 1   
    33    15    22 1   
    34    15    36 1   
    35    15    37 1   
    36    16    22 1   
    37    17    38 1   
    38    18    21 1   
    39    18    39 1   
    40    19    20 1   
    41    19    21 2   
@<TRIPOS>SUBSTRUCTURE
     1 Y9A         1 TEMP              0 ****  ****    0 ROOT
