@<TRIPOS>MOLECULE
Y9A
   39    41     1     0     0
SMALL
bcc


@<TRIPOS>ATOM
      1 C1         -15.5350    25.5850   -10.3680 c3         1 Y9A      -0.048800
      2 C2         -15.9790    24.1940   -10.0230 ca         1 Y9A      -0.066300
      3 C3         -15.0610    23.2250    -9.6220 ca         1 Y9A      -0.130500
      4 C4         -15.4640    21.9310    -9.3270 ca         1 Y9A      -0.108000
      5 C5         -16.8030    21.5670    -9.4310 ca         1 Y9A      -0.137300
      6 C6         -17.7230    22.5290    -9.8320 ca         1 Y9A      -0.108000
      7 C12        -16.0920    17.9330   -13.4230 ca         1 Y9A      -0.155000
      8 C13        -16.9080    19.0120   -13.1210 ca         1 Y9A      -0.079300
      9 C14        -17.0230    19.4560   -11.8040 ca         1 Y9A      -0.190000
     10 C15        -17.6300    19.7390   -14.2260 c3         1 Y9A       0.268100
     11 C16        -19.6840    21.0620   -14.4380 cc         1 Y9A       0.655400
     12 C10        -15.4880    17.7370   -11.0980 ca         1 Y9A      -0.153000
     13 C11        -15.3820    17.3040   -12.4050 ca         1 Y9A      -0.095000
     14 C7         -17.3180    23.8240   -10.1200 ca         1 Y9A      -0.130500
     15 C8         -17.2640    20.1790    -9.0690 c3         1 Y9A       0.186700
     16 C9         -16.3190    18.8170   -10.7900 ca         1 Y9A       0.144100
     17 N1         -18.9760    20.0940   -13.8320 nu         1 Y9A      -0.865900
     18 N2         -19.2150    21.9980   -15.2710 na         1 Y9A      -0.220400
     19 N3         -21.2500    22.3670   -15.0180 nd         1 Y9A      -0.024000
     20 N4         -20.9760    21.2900   -14.2800 nd         1 Y9A      -0.458000
     21 N5         -20.2240    22.8080   -15.6150 nc         1 Y9A      -0.212800
     22 O1         -16.3760    19.1600    -9.4860 os         1 Y9A      -0.318900
     23 H1         -15.3240    25.6750   -11.4360 hc         1 Y9A       0.043700
     24 H2         -16.3020    26.3210   -10.1290 hc         1 Y9A       0.043700
     25 H3         -14.6250    25.8590    -9.8340 hc         1 Y9A       0.043700
     26 H4         -14.0140    23.4870    -9.5320 ha         1 Y9A       0.132500
     27 H5         -14.7240    21.2040    -9.0140 ha         1 Y9A       0.136000
     28 H6         -18.7700    22.2630    -9.9250 ha         1 Y9A       0.136000
     29 H7         -16.0090    17.5810   -14.4440 ha         1 Y9A       0.132000
     30 H8         -17.6670    20.3000   -11.5980 ha         1 Y9A       0.153000
     31 H9         -17.6200    19.1320   -15.1370 h1         1 Y9A       0.045700
     32 H10        -17.0790    20.6550   -14.4510 h1         1 Y9A       0.045700
     33 H11        -14.9420    17.2410   -10.3050 ha         1 Y9A       0.148000
     34 H12        -14.7450    16.4590   -12.6350 ha         1 Y9A       0.136000
     35 H13        -18.0550    24.5560   -10.4290 ha         1 Y9A       0.132500
     36 H14        -18.2750    20.0020    -9.4530 h1         1 Y9A       0.063200
     37 H15        -17.3140    20.0740    -7.9840 h1         1 Y9A       0.063200
     38 H16        -19.5350    19.3640   -13.4150 hn         1 Y9A       0.460800
     39 H17        -18.2860    22.1540   -15.6350 hn         1 Y9A       0.331700
@<TRIPOS>BOND
     1     1     2 1   
     2     1    23 1   
     3     1    24 1   
     4     1    25 1   
     5     2     3 ar  
     6     2    14 ar  
     7     3     4 ar  
     8     3    26 1   
     9     4     5 ar  
    10     4    27 1   
    11     5     6 ar  
    12     5    15 1   
    13     6    14 ar  
    14     6    28 1   
    15     7     8 ar  
    16     7    13 ar  
    17     7    29 1   
    18     8     9 ar  
    19     8    10 1   
    20     9    16 ar  
    21     9    30 1   
    22    10    17 1   
    23    10    31 1   
    24    10    32 1   
    25    11    17 1   
    26    11    18 1   
    27    11    20 2   
    28    12    13 ar  
    29    12    16 ar  
    30    12    33 1   
    31    13    34 1   
    32    14    35 1   
    33    15    22 1   
    34    15    36 1   
    35    15    37 1   
    36    16    22 1   
    37    17    38 1   
    38    18    21 1   
    39    18    39 1   
    40    19    20 1   
    41    19    21 2   
@<TRIPOS>SUBSTRUCTURE
     1 Y9A         1 TEMP              0 ****  ****    0 ROOT
