@<TRIPOS>MOLECULE
Y9B
   32    34     1     0     0
SMALL
No Charge or Current Charge


@<TRIPOS>ATOM
      1 C01          3.9810     0.0590    -0.0250 cc         1 Y9B       0.111500
      2 C02          2.6130    -0.2640    -0.5110 c          1 Y9B       0.558600
      3 N03          1.6080     0.3440     0.2290 ns         1 Y9B      -0.125000
      4 O05          2.3980    -0.9800    -1.4880 o          1 Y9B      -0.599100
      5 C06          5.1170    -0.4770    -0.6860 cc         1 Y9B       0.553300
      6 O07          5.0390    -1.2860    -1.7600 oh         1 Y9B      -0.603300
      7 N08          6.2830    -0.1510    -0.2040 nd         1 Y9B      -0.575100
      8 S09          5.9440     0.8510     1.1050 ss         1 Y9B       0.519200
      9 N10          4.2610     0.8350     1.0120 nd         1 Y9B      -0.516100
     10 C11         -2.6710     0.1200    -0.0120 cp         1 Y9B      -0.063000
     11 C12         -1.8790    -1.0500    -0.1520 ca         1 Y9B       0.159500
     12 F13         -2.4760    -2.2520    -0.3300 f          1 Y9B      -0.141000
     13 C14         -0.4720    -0.9960    -0.0720 ca         1 Y9B       0.143500
     14 F15          0.2310    -2.1510    -0.1410 f          1 Y9B      -0.140000
     15 C16          0.1890     0.2360     0.1390 ca         1 Y9B      -0.091000
     16 C17         -0.5900     1.3980     0.3060 ca         1 Y9B       0.143500
     17 F18          0.0220     2.5860     0.5270 f          1 Y9B      -0.140000
     18 C19         -1.9960     1.3450     0.2260 ca         1 Y9B       0.159500
     19 F20         -2.7010     2.4940     0.3560 f          1 Y9B      -0.141000
     20 C21         -6.9970    -0.0570    -0.2600 ca         1 Y9B      -0.093000
     21 C23         -6.3800     0.5650     0.8370 ca         1 Y9B      -0.111000
     22 C25         -4.9780     0.6230     0.9180 ca         1 Y9B      -0.077500
     23 C27         -4.1650     0.0590    -0.0970 cp         1 Y9B      -0.054000
     24 C28         -4.8070    -0.5650    -1.1950 ca         1 Y9B      -0.077500
     25 C30         -6.2090    -0.6220    -1.2770 ca         1 Y9B      -0.111000
     26 H1           1.9450     0.9670     0.9540 hn         1 Y9B       0.198000
     27 H2           4.0690    -1.3790    -1.9310 ho         1 Y9B       0.520000
     28 H5          -8.0820    -0.1020    -0.3230 ha         1 Y9B       0.117000
     29 H6          -6.9880     1.0020     1.6270 ha         1 Y9B       0.118500
     30 H7          -4.5150     1.1010     1.7780 ha         1 Y9B       0.119500
     31 H8          -4.2110    -1.0000    -1.9940 ha         1 Y9B       0.119500
     32 H9          -6.6850    -1.1040    -2.1290 ha         1 Y9B       0.118500
@<TRIPOS>BOND
     1     1     2 1   
     2     1     5 1   
     3     1     9 2   
     4     2     3 1   
     5     2     4 2   
     6     3    15 1   
     7     3    26 1   
     8     5     6 1   
     9     5     7 2   
    10     6    27 1   
    11     7     8 1   
    12     8     9 1   
    13    10    11 ar  
    14    10    18 ar  
    15    10    23 1   
    16    11    12 1   
    17    11    13 ar  
    18    13    14 1   
    19    13    15 ar  
    20    15    16 ar  
    21    16    17 1   
    22    16    18 ar  
    23    18    19 1   
    24    20    21 ar  
    25    20    25 ar  
    26    20    28 1   
    27    21    22 ar  
    28    21    29 1   
    29    22    23 ar  
    30    22    30 1   
    31    23    24 ar  
    32    24    25 ar  
    33    24    31 1   
    34    25    32 1   
@<TRIPOS>SUBSTRUCTURE
     1 Y9B         1 TEMP              0 ****  ****    0 ROOT
