@<TRIPOS>MOLECULE
Y9B
   32    34     1     0     0
SMALL
abcg2


@<TRIPOS>ATOM
      1 C01          3.8600     0.0070    -0.0600 cc         1 Y9B       0.111500
      2 C02          2.4270    -0.1500    -0.3770 c          1 Y9B       0.558600
      3 N03          1.5670     0.3210     0.5440 ns         1 Y9B      -0.125000
      4 O05          2.0900    -0.6790    -1.4260 o          1 Y9B      -0.599100
      5 C06          4.9090    -0.4370    -0.9380 cc         1 Y9B       0.553300
      6 O07          4.7420    -1.0220    -2.1070 oh         1 Y9B      -0.603300
      7 N08          6.0990    -0.2030    -0.4630 nd         1 Y9B      -0.575100
      8 S09          5.9270     0.5250     0.9910 ss         1 Y9B       0.519200
      9 N10          4.3030     0.5540     1.0380 nd         1 Y9B      -0.516100
     10 C11         -2.6160     0.1190     0.0560 cp         1 Y9B      -0.063000
     11 C12         -1.8460    -1.0300     0.1480 ca         1 Y9B       0.159500
     12 F13         -2.4340    -2.2240     0.1080 f          1 Y9B      -0.141000
     13 C14         -0.4760    -0.9750     0.3140 ca         1 Y9B       0.143500
     14 F15          0.2180    -2.0990     0.4380 f          1 Y9B      -0.140000
     15 C16          0.1800     0.2460     0.3740 ca         1 Y9B      -0.091000
     16 C17         -0.5810     1.4010     0.2730 ca         1 Y9B       0.143500
     17 F18          0.0210     2.5840     0.3150 f          1 Y9B      -0.140000
     18 C19         -1.9520     1.3340     0.1260 ca         1 Y9B       0.159500
     19 F20         -2.6400     2.4690     0.0210 f          1 Y9B      -0.141000
     20 C21         -6.8500    -0.0800    -0.3990 ca         1 Y9B      -0.093000
     21 C23         -6.2980     0.5010     0.7350 ca         1 Y9B      -0.111000
     22 C25         -4.9200     0.5690     0.8820 ca         1 Y9B      -0.077500
     23 C27         -4.0850     0.0500    -0.1040 cp         1 Y9B      -0.054000
     24 C28         -4.6410    -0.5340    -1.2390 ca         1 Y9B      -0.077500
     25 C30         -6.0200    -0.5970    -1.3840 ca         1 Y9B      -0.111000
     26 H1           1.9340     0.7900     1.3610 hn         1 Y9B       0.198000
     27 H2           3.7850    -1.0940    -2.2840 ho         1 Y9B       0.520000
     28 H5          -7.9250    -0.1310    -0.5130 ha         1 Y9B       0.117000
     29 H6          -6.9390     0.9030     1.5090 ha         1 Y9B       0.118500
     30 H7          -4.4960     1.0100     1.7750 ha         1 Y9B       0.119500
     31 H8          -4.0010    -0.9290    -2.0170 ha         1 Y9B       0.119500
     32 H9          -6.4440    -1.0490    -2.2710 ha         1 Y9B       0.118500
@<TRIPOS>BOND
     1     1     2 1   
     2     1     5 1   
     3     1     9 2   
     4     2     3 1   
     5     2     4 2   
     6     3    15 1   
     7     3    26 1   
     8     5     6 1   
     9     5     7 2   
    10     6    27 1   
    11     7     8 1   
    12     8     9 1   
    13    10    11 ar  
    14    10    18 ar  
    15    10    23 1   
    16    11    12 1   
    17    11    13 ar  
    18    13    14 1   
    19    13    15 ar  
    20    15    16 ar  
    21    16    17 1   
    22    16    18 ar  
    23    18    19 1   
    24    20    21 ar  
    25    20    25 ar  
    26    20    28 1   
    27    21    22 ar  
    28    21    29 1   
    29    22    23 ar  
    30    22    30 1   
    31    23    24 ar  
    32    24    25 ar  
    33    24    31 1   
    34    25    32 1   
@<TRIPOS>SUBSTRUCTURE
     1 Y9B         1 TEMP              0 ****  ****    0 ROOT
