@<TRIPOS>MOLECULE
Y9D
   91    97     1     0     0
SMALL
abcg2


@<TRIPOS>ATOM
      1 C10         71.3060   -11.4240    99.0090 ca         1 Y9D      -0.071000
      2 C9          72.1290   -12.2630    98.2920 ca         1 Y9D      -0.127000
      3 C21         68.9370    -7.4120    95.3310 ca         1 Y9D      -0.065000
      4 C6          71.3250   -11.5690    94.8810 cc         1 Y9D       0.349800
      5 C22         67.6260    -7.8090    95.0230 ca         1 Y9D      -0.191000
      6 C7          71.1190   -11.3380    96.2680 ca         1 Y9D      -0.219900
      7 C12         70.2900   -10.4940    97.0230 cp         1 Y9D       0.036000
      8 C19         69.3700    -9.5630    96.3270 cp         1 Y9D      -0.018000
      9 C20         69.8060    -8.2560    95.9830 ca         1 Y9D      -0.059800
     10 C11         70.3880   -10.5340    98.4030 ca         1 Y9D      -0.080300
     11 C17         67.2130    -9.1290    95.2920 ca         1 Y9D       0.061000
     12 C8          72.0230   -12.2060    96.9000 ca         1 Y9D      -0.043200
     13 C18         68.1020    -9.9820    96.0000 ca         1 Y9D       0.128100
     14 C32         66.6620    -6.9970    94.3230 ca         1 Y9D       0.440900
     15 C34         65.3390    -8.8390    94.0890 ca         1 Y9D       0.401300
     16 C1          71.5360    -6.5830    96.6010 c2         1 Y9D      -0.315000
     17 C46         65.7200     1.5800    92.5730 c3         1 Y9D      -0.084100
     18 C2          71.1740    -7.8310    96.3070 ce         1 Y9D      -0.154200
     19 C45         66.2510     1.0660    93.9090 c3         1 Y9D      -0.154400
     20 C40         62.4290    -7.7920    93.5300 c6         1 Y9D      -0.086400
     21 C42         62.5890    -9.6710    91.9080 c6         1 Y9D      -0.086400
     22 C24         64.9800    -4.1350    93.5960 c6         1 Y9D      -0.091400
     23 C29         66.2470    -3.8970    95.7130 c6         1 Y9D      -0.091400
     24 C39         61.4510    -8.6340    94.3340 c6         1 Y9D       0.165800
     25 C37         61.6000   -10.4430    92.7700 c6         1 Y9D       0.165800
     26 C23         66.1240    -4.9840    93.0630 c6         1 Y9D       0.221800
     27 C30         67.3620    -4.7750    95.1500 c6         1 Y9D       0.221800
     28 C25         64.4900    -2.1060    95.1430 cy         1 Y9D       0.109000
     29 C27         66.3200    -1.9630    94.0260 cy         1 Y9D       0.109000
     30 C41         63.3800    -8.6520    92.7100 c6         1 Y9D       0.192300
     31 C28         65.5080    -3.1470    94.6210 cy         1 Y9D      -0.090000
     32 C3          69.5340    -9.6440    99.2600 c3         1 Y9D      -0.044800
     33 C13         66.7050   -13.2960    95.7350 c3         1 Y9D      -0.094100
     34 N5          72.2480   -12.4800    94.6950 nd         1 Y9D      -0.517100
     35 N16         66.0380    -9.6310    94.8580 nb         1 Y9D      -0.218000
     36 N33         65.5840    -7.5590    93.8100 nb         1 Y9D      -0.350000
     37 N4          72.6640   -12.8610    95.9030 na         1 Y9D      -0.064400
     38 N31         66.8470    -5.6740    94.1220 nh         1 Y9D      -0.786300
     39 N26         65.3460    -1.0610    94.6160 nj         1 Y9D      -0.429800
     40 N38         60.7100    -9.5400    93.4760 n3         1 Y9D      -0.720600
     41 O44         64.2310     0.7950    95.1810 o          1 Y9D      -0.604100
     42 O15         67.6720   -11.2100    96.3700 os         1 Y9D      -0.351100
     43 O35         64.2600    -9.4040    93.5590 os         1 Y9D      -0.448300
     44 H1          71.3630   -11.4410   100.0900 ha         1 Y9D       0.113000
     45 H2          72.8230   -12.9290    98.7880 ha         1 Y9D       0.120000
     46 H3          69.3000    -6.4470    95.0040 ha         1 Y9D       0.120000
     47 H4          70.8300   -11.1050    94.0410 h4         1 Y9D       0.051800
     48 H5          70.8230    -5.7690    96.6580 ha         1 Y9D       0.161500
     49 H6          72.5690    -6.3380    96.8050 ha         1 Y9D       0.161500
     50 H7          66.4750     2.1820    92.0690 hc         1 Y9D       0.041033
     51 H8          65.4520     0.7580    91.9080 hc         1 Y9D       0.041033
     52 H9          64.8360     2.2030    92.7130 hc         1 Y9D       0.041033
     53 H10         71.9340    -8.6050    96.3110 ha         1 Y9D       0.187000
     54 H11         67.1570     0.4810    93.7460 hc         1 Y9D       0.058700
     55 H12         66.5270     1.9090    94.5450 hc         1 Y9D       0.058700
     56 H13         62.9800    -7.1200    94.1900 hc         1 Y9D       0.057950
     57 H14         61.8720    -7.1600    92.8320 hc         1 Y9D       0.057950
     58 H15         63.2630   -10.3610    91.3960 hc         1 Y9D       0.057950
     59 H16         62.0400    -9.1280    91.1350 hc         1 Y9D       0.057950
     60 H17         64.5010    -3.6100    92.7660 hc         1 Y9D       0.060950
     61 H18         64.2220    -4.7740    94.0580 hc         1 Y9D       0.060950
     62 H19         66.6860    -3.2010    96.4330 hc         1 Y9D       0.060950
     63 H20         65.5390    -4.5250    96.2630 hc         1 Y9D       0.060950
     64 H21         60.7420    -7.9740    94.8400 h1         1 Y9D       0.038450
     65 H22         61.9890    -9.1800    95.1290 h1         1 Y9D       0.038450
     66 H23         61.0000   -11.0940    92.1290 h1         1 Y9D       0.038450
     67 H24         62.1410   -11.1060    93.4680 h1         1 Y9D       0.038450
     68 H25         66.8460    -4.3380    92.5520 h1         1 Y9D       0.060200
     69 H26         65.7690    -5.7100    92.3360 h1         1 Y9D       0.060200
     70 H27         67.8000    -5.3410    95.9650 h1         1 Y9D       0.060200
     71 H28         68.1560    -4.1550    94.7200 h1         1 Y9D       0.060200
     72 H29         64.3610    -2.0770    96.2280 h1         1 Y9D       0.055950
     73 H30         63.5050    -2.1480    94.6710 h1         1 Y9D       0.055950
     74 H31         66.3530    -1.9260    92.9330 h1         1 Y9D       0.055950
     75 H32         67.3350    -1.8440    94.4120 h1         1 Y9D       0.055950
     76 H33         63.9710    -8.0250    92.0390 h1         1 Y9D       0.062700
     77 H34         68.4710    -9.8330    99.1030 hc         1 Y9D       0.045033
     78 H35         69.7430    -9.7970   100.3180 hc         1 Y9D       0.045033
     79 H36         69.7060    -8.5880    99.0400 hc         1 Y9D       0.045033
     80 H37         66.7460   -14.1070    95.0090 hc         1 Y9D       0.044033
     81 H38         66.9150   -13.7190    96.7180 hc         1 Y9D       0.044033
     82 H39         65.6910   -12.8950    95.7380 hc         1 Y9D       0.044033
     83 H40         59.0130    -9.5670    94.6920 h1         1 Y9D       0.030033
     84 H41         59.1310   -10.9040    93.5470 h1         1 Y9D       0.030033
     85 H42         60.1280   -10.9050    95.0100 h1         1 Y9D       0.030033
     86 H43         68.7190   -12.6490    95.3170 h1         1 Y9D       0.034700
     87 H44         67.4750   -11.8090    94.3870 h1         1 Y9D       0.034700
     88 H45         73.3830   -13.5620    95.9860 hn         1 Y9D       0.375000
     89 C36         59.7060   -10.2650    94.2190 c3         1 Y9D       0.154100
     90 C43         65.1930     0.2660    94.6330 c          1 Y9D       0.614100
     91 C14         67.7090   -12.2300    95.3680 c3         1 Y9D       0.174600
@<TRIPOS>BOND
     1     1     2 ar  
     2     1    10 ar  
     3     1    44 1   
     4     2    12 ar  
     5     2    45 1   
     6     3     5 ar  
     7     3     9 ar  
     8     3    46 1   
     9     4     6 1   
    10     4    34 2   
    11     4    47 1   
    12     5    11 ar  
    13     5    14 ar  
    14     6     7 ar  
    15     6    12 ar  
    16     7     8 1   
    17     7    10 ar  
    18     8     9 ar  
    19     8    13 ar  
    20     9    18 1   
    21    10    32 1   
    22    11    13 ar  
    23    11    35 ar  
    24    12    37 1   
    25    13    42 1   
    26    14    36 ar  
    27    14    38 1   
    28    15    35 ar  
    29    15    36 ar  
    30    15    43 1   
    31    16    18 2   
    32    16    48 1   
    33    16    49 1   
    34    17    19 1   
    35    17    50 1   
    36    17    51 1   
    37    17    52 1   
    38    18    53 1   
    39    19    54 1   
    40    19    55 1   
    41    19    90 1   
    42    20    24 1   
    43    20    30 1   
    44    20    56 1   
    45    20    57 1   
    46    21    25 1   
    47    21    30 1   
    48    21    58 1   
    49    21    59 1   
    50    22    26 1   
    51    22    31 1   
    52    22    60 1   
    53    22    61 1   
    54    23    27 1   
    55    23    31 1   
    56    23    62 1   
    57    23    63 1   
    58    24    40 1   
    59    24    64 1   
    60    24    65 1   
    61    25    40 1   
    62    25    66 1   
    63    25    67 1   
    64    26    38 1   
    65    26    68 1   
    66    26    69 1   
    67    27    38 1   
    68    27    70 1   
    69    27    71 1   
    70    28    31 1   
    71    28    39 1   
    72    28    72 1   
    73    28    73 1   
    74    29    31 1   
    75    29    39 1   
    76    29    74 1   
    77    29    75 1   
    78    30    43 1   
    79    30    76 1   
    80    32    77 1   
    81    32    78 1   
    82    32    79 1   
    83    33    80 1   
    84    33    81 1   
    85    33    82 1   
    86    33    91 1   
    87    34    37 1   
    88    37    88 1   
    89    39    90 1   
    90    40    89 1   
    91    41    90 2   
    92    42    91 1   
    93    83    89 1   
    94    84    89 1   
    95    85    89 1   
    96    86    91 1   
    97    87    91 1   
@<TRIPOS>SUBSTRUCTURE
     1 Y9D         1 TEMP              0 ****  ****    0 ROOT
