@<TRIPOS>MOLECULE
Y9D
   91    97     1     0     0
SMALL
No Charge or Current Charge


@<TRIPOS>ATOM
      1 C10         70.8620   -11.9720    99.0010 ca         1 Y9D      -0.071000
      2 C9          71.8680   -12.6600    98.2910 ca         1 Y9D      -0.127000
      3 C21         69.0350    -7.4880    95.3230 ca         1 Y9D      -0.065000
      4 C6          71.7340   -11.4140    94.9430 cc         1 Y9D       0.349800
      5 C22         67.7680    -7.8750    94.8340 ca         1 Y9D      -0.191000
      6 C7          71.2580   -11.4300    96.3050 ca         1 Y9D      -0.219900
      7 C12         70.2390   -10.7190    96.9690 cp         1 Y9D       0.036000
      8 C19         69.4030    -9.7230    96.2360 cp         1 Y9D      -0.018000
      9 C20         69.8540    -8.3910    96.0320 ca         1 Y9D      -0.059800
     10 C11         70.0480   -11.0050    98.3540 ca         1 Y9D      -0.080300
     11 C17         67.3100    -9.1960    95.0260 ca         1 Y9D       0.061000
     12 C8          72.0300   -12.3530    96.9370 ca         1 Y9D      -0.043200
     13 C18         68.1360   -10.1030    95.7270 ca         1 Y9D       0.128100
     14 C32         66.9220    -6.9890    94.1290 ca         1 Y9D       0.440900
     15 C34         65.3670    -8.6630    93.8780 ca         1 Y9D       0.401300
     16 C1          71.5120    -6.6610    96.8500 c2         1 Y9D      -0.315000
     17 C46         66.1030     1.9790    93.5860 c3         1 Y9D      -0.084100
     18 C2          71.1830    -7.9370    96.5480 ce         1 Y9D      -0.154200
     19 C45         64.7750     1.2090    93.7620 c3         1 Y9D      -0.154400
     20 C40         62.5370    -7.4820    94.3730 c6         1 Y9D      -0.086400
     21 C42         61.9350    -8.9110    92.3770 c6         1 Y9D      -0.086400
     22 C24         65.5720    -4.1770    92.7100 c6         1 Y9D      -0.091400
     23 C29         65.9210    -3.9380    95.2210 c6         1 Y9D      -0.091400
     24 C39         61.7990    -8.4940    95.2780 c6         1 Y9D       0.165800
     25 C37         61.2080    -9.8820    93.3360 c6         1 Y9D       0.165800
     26 C23         66.9100    -4.9550    92.6260 c6         1 Y9D       0.221800
     27 C30         67.2600    -4.7050    95.0890 c6         1 Y9D       0.221800
     28 C25         64.2890    -2.2840    94.0030 cy         1 Y9D       0.109000
     29 C27         66.3830    -1.8730    93.6720 cy         1 Y9D       0.109000
     30 C41         63.0850    -8.1680    93.0930 c6         1 Y9D       0.192300
     31 C28         65.5620    -3.1860    93.9050 cy         1 Y9D      -0.090000
     32 C3          68.9720   -10.2820    99.1560 c3         1 Y9D      -0.044800
     33 C13         67.4630   -13.7330    95.4470 c3         1 Y9D      -0.094100
     34 N5          72.7430   -12.2800    94.7470 nd         1 Y9D      -0.517100
     35 N16         66.1050    -9.5710    94.5440 nb         1 Y9D      -0.218000
     36 N33         65.7390    -7.3910    93.6440 nb         1 Y9D      -0.350000
     37 N4          72.9150   -12.8590    96.0100 na         1 Y9D      -0.064400
     38 N31         67.2330    -5.6280    93.9200 nh         1 Y9D      -0.786300
     39 N26         65.2240    -1.1380    94.2920 nj         1 Y9D      -0.429800
     40 N38         60.6980    -9.1760    94.5430 n3         1 Y9D      -0.720600
     41 O44         64.6930    -0.3940    92.0350 o          1 Y9D      -0.604100
     42 O15         67.7260   -11.4020    95.9400 os         1 Y9D      -0.351100
     43 O35         64.1500    -9.1030    93.3980 os         1 Y9D      -0.448300
     44 H1          70.7140   -12.1900   100.0570 ha         1 Y9D       0.113000
     45 H2          72.4940   -13.4020    98.7820 ha         1 Y9D       0.120000
     46 H3          69.3970    -6.4820    95.1340 ha         1 Y9D       0.120000
     47 H4          71.4090   -10.8300    94.0920 h4         1 Y9D       0.051800
     48 H5          70.8130    -5.8310    96.7440 ha         1 Y9D       0.161500
     49 H6          72.5020    -6.4090    97.2320 ha         1 Y9D       0.161500
     50 H7          66.0080     3.0000    93.9730 hc         1 Y9D       0.041033
     51 H8          66.9150     1.4800    94.1290 hc         1 Y9D       0.041033
     52 H9          66.3800     2.0370    92.5270 hc         1 Y9D       0.041033
     53 H10         71.9200    -8.7270    96.7030 ha         1 Y9D       0.187000
     54 H11         64.5540     1.1920    94.8360 hc         1 Y9D       0.058700
     55 H12         63.9850     1.7400    93.2180 hc         1 Y9D       0.058700
     56 H13         63.3430    -6.9970    94.9360 hc         1 Y9D       0.057950
     57 H14         61.8420    -6.6810    94.0860 hc         1 Y9D       0.057950
     58 H15         62.3260    -9.4610    91.5110 hc         1 Y9D       0.057950
     59 H16         61.2160    -8.1810    91.9830 hc         1 Y9D       0.057950
     60 H17         65.3980    -3.6450    91.7640 hc         1 Y9D       0.060950
     61 H18         64.7430    -4.8890    92.8150 hc         1 Y9D       0.060950
     62 H19         65.9810    -3.2390    96.0660 hc         1 Y9D       0.060950
     63 H20         65.1230    -4.6520    95.4670 hc         1 Y9D       0.060950
     64 H21         61.3990    -7.9580    96.1510 h1         1 Y9D       0.038450
     65 H22         62.5210    -9.2330    95.6580 h1         1 Y9D       0.038450
     66 H23         60.3760   -10.3550    92.7920 h1         1 Y9D       0.038450
     67 H24         61.9000   -10.6870    93.6280 h1         1 Y9D       0.038450
     68 H25         67.7200    -4.2580    92.3620 h1         1 Y9D       0.060200
     69 H26         66.8580    -5.6900    91.8090 h1         1 Y9D       0.060200
     70 H27         67.4450    -5.2620    96.0200 h1         1 Y9D       0.060200
     71 H28         68.0890    -3.9890    94.9820 h1         1 Y9D       0.060200
     72 H29         63.6380    -2.5230    94.8510 h1         1 Y9D       0.055950
     73 H30         63.6930    -2.2420    93.0830 h1         1 Y9D       0.055950
     74 H31         66.6150    -1.6640    92.6200 h1         1 Y9D       0.055950
     75 H32         67.2980    -1.8010    94.2710 h1         1 Y9D       0.055950
     76 H33         63.4740    -7.4020    92.4060 h1         1 Y9D       0.062700
     77 H34         67.9710   -10.5590    98.8060 hc         1 Y9D       0.045033
     78 H35         69.0280   -10.5220   100.2250 hc         1 Y9D       0.045033
     79 H36         69.0730    -9.1950    99.0580 hc         1 Y9D       0.045033
     80 H37         67.6050   -14.5120    94.6900 hc         1 Y9D       0.044033
     81 H38         68.0380   -14.0100    96.3390 hc         1 Y9D       0.044033
     82 H39         66.4000   -13.6970    95.7110 hc         1 Y9D       0.044033
     83 H40         59.4920    -9.5040    96.2690 h1         1 Y9D       0.030033
     84 H41         59.0660   -10.5060    94.8660 h1         1 Y9D       0.030033
     85 H42         60.5250   -10.8810    95.8140 h1         1 Y9D       0.030033
     86 H43         68.9950   -12.4350    94.6360 h1         1 Y9D       0.034700
     87 H44         67.3600   -12.1150    94.0060 h1         1 Y9D       0.034700
     88 H45         73.6250   -13.5710    96.1810 hn         1 Y9D       0.375000
     89 C36         59.9050   -10.0640    95.4200 c3         1 Y9D       0.154100
     90 C43         64.8880    -0.2290    93.2380 c          1 Y9D       0.614100
     91 C14         67.9320   -12.3740    94.9060 c3         1 Y9D       0.174600
@<TRIPOS>BOND
     1     1     2 ar  
     2     1    10 ar  
     3     1    44 1   
     4     2    12 ar  
     5     2    45 1   
     6     3     5 ar  
     7     3     9 ar  
     8     3    46 1   
     9     4     6 1   
    10     4    34 2   
    11     4    47 1   
    12     5    11 ar  
    13     5    14 ar  
    14     6     7 ar  
    15     6    12 ar  
    16     7     8 1   
    17     7    10 ar  
    18     8     9 ar  
    19     8    13 ar  
    20     9    18 1   
    21    10    32 1   
    22    11    13 ar  
    23    11    35 ar  
    24    12    37 1   
    25    13    42 1   
    26    14    36 ar  
    27    14    38 1   
    28    15    35 ar  
    29    15    36 ar  
    30    15    43 1   
    31    16    18 2   
    32    16    48 1   
    33    16    49 1   
    34    17    19 1   
    35    17    50 1   
    36    17    51 1   
    37    17    52 1   
    38    18    53 1   
    39    19    54 1   
    40    19    55 1   
    41    19    90 1   
    42    20    24 1   
    43    20    30 1   
    44    20    56 1   
    45    20    57 1   
    46    21    25 1   
    47    21    30 1   
    48    21    58 1   
    49    21    59 1   
    50    22    26 1   
    51    22    31 1   
    52    22    60 1   
    53    22    61 1   
    54    23    27 1   
    55    23    31 1   
    56    23    62 1   
    57    23    63 1   
    58    24    40 1   
    59    24    64 1   
    60    24    65 1   
    61    25    40 1   
    62    25    66 1   
    63    25    67 1   
    64    26    38 1   
    65    26    68 1   
    66    26    69 1   
    67    27    38 1   
    68    27    70 1   
    69    27    71 1   
    70    28    31 1   
    71    28    39 1   
    72    28    72 1   
    73    28    73 1   
    74    29    31 1   
    75    29    39 1   
    76    29    74 1   
    77    29    75 1   
    78    30    43 1   
    79    30    76 1   
    80    32    77 1   
    81    32    78 1   
    82    32    79 1   
    83    33    80 1   
    84    33    81 1   
    85    33    82 1   
    86    33    91 1   
    87    34    37 1   
    88    37    88 1   
    89    39    90 1   
    90    40    89 1   
    91    41    90 2   
    92    42    91 1   
    93    83    89 1   
    94    84    89 1   
    95    85    89 1   
    96    86    91 1   
    97    87    91 1   
@<TRIPOS>SUBSTRUCTURE
     1 Y9D         1 TEMP              0 ****  ****    0 ROOT
