@<TRIPOS>MOLECULE
Y9E
   22    22     1     0     0
SMALL
No Charge or Current Charge


@<TRIPOS>ATOM
      1 C1          14.2900    33.2230   101.0340 c3         1 Y9E      -0.031100
      2 C2          13.8050    31.8510   100.5860 ca         1 Y9E      -0.055300
      3 C3          12.8630    31.1430   101.3590 ca         1 Y9E      -0.111000
      4 C4          12.4180    29.8750   100.9480 ca         1 Y9E      -0.116000
      5 C5          12.9130    29.3060    99.7620 ca         1 Y9E      -0.131000
      6 C6          13.8540    30.0050    98.9890 ca         1 Y9E      -0.116000
      7 C7          14.2990    31.2740    99.4000 ca         1 Y9E      -0.111000
      8 C8          15.5140    33.1280   101.9720 c3         1 Y9E      -0.190400
      9 C9          15.9940    34.5290   102.4030 c          1 Y9E       0.457100
     10 C10         17.1890    35.2070   101.5380 c          1 Y9E       0.654000
     11 O11         15.4640    35.0970   103.3640 o          1 Y9E      -0.588100
     12 O12         18.1040    34.4940   101.1320 o          1 Y9E      -0.707000
     13 O13         17.1480    36.4190   101.3300 o          1 Y9E      -0.707000
     14 H1          14.5500    33.8340   100.1600 hc         1 Y9E       0.051200
     15 H2          13.4810    33.7570   101.5490 hc         1 Y9E       0.051200
     16 H3          12.4770    31.5760   102.2790 ha         1 Y9E       0.113500
     17 H4          11.6910    29.3330   101.5480 ha         1 Y9E       0.100000
     18 H5          12.5690    28.3240    99.4440 ha         1 Y9E       0.098000
     19 H6          14.2390    29.5650    98.0710 ha         1 Y9E       0.100000
     20 H7          15.0300    31.8080    98.7960 ha         1 Y9E       0.113500
     21 H8          15.2370    32.5470   102.8590 hc         1 Y9E       0.062700
     22 H9          16.3090    32.6200   101.4150 hc         1 Y9E       0.062700
@<TRIPOS>BOND
     1     1     2 1   
     2     1     8 1   
     3     1    14 1   
     4     1    15 1   
     5     2     3 ar  
     6     2     7 ar  
     7     3     4 ar  
     8     3    16 1   
     9     4     5 ar  
    10     4    17 1   
    11     5     6 ar  
    12     5    18 1   
    13     6     7 ar  
    14     6    19 1   
    15     7    20 1   
    16     8     9 1   
    17     8    21 1   
    18     8    22 1   
    19     9    10 1   
    20     9    11 2   
    21    10    12 1   
    22    10    13 1   
@<TRIPOS>SUBSTRUCTURE
     1 Y9E         1 TEMP              0 ****  ****    0 ROOT
