@<TRIPOS>MOLECULE
Y9E
   22    22     1     0     0
SMALL
abcg2


@<TRIPOS>ATOM
      1 C1          14.0390    33.2710   101.0150 c3         1 Y9E      -0.031100
      2 C2          13.6710    31.8770   100.5820 ca         1 Y9E      -0.055300
      3 C3          13.1900    30.9460   101.5060 ca         1 Y9E      -0.111000
      4 C4          12.8840    29.6460   101.1180 ca         1 Y9E      -0.116000
      5 C5          13.0550    29.2530    99.7940 ca         1 Y9E      -0.131000
      6 C6          13.5340    30.1720    98.8630 ca         1 Y9E      -0.116000
      7 C7          13.8380    31.4710    99.2570 ca         1 Y9E      -0.111000
      8 C8          15.5050    33.3650   101.4390 c3         1 Y9E      -0.190400
      9 C9          15.9330    34.7330   101.9130 c          1 Y9E       0.457100
     10 C10         17.3970    34.8730   102.3430 c          1 Y9E       0.654000
     11 O11         15.1700    35.6840   101.9690 o          1 Y9E      -0.588100
     12 O12         17.6390    34.5320   103.5220 o          1 Y9E      -0.707000
     13 O13         18.1820    35.3120   101.4730 o          1 Y9E      -0.707000
     14 H1          13.8570    33.9740   100.2000 hc         1 Y9E       0.051200
     15 H2          13.4060    33.5790   101.8500 hc         1 Y9E       0.051200
     16 H3          13.0510    31.2470   102.5380 ha         1 Y9E       0.113500
     17 H4          12.5080    28.9400   101.8490 ha         1 Y9E       0.100000
     18 H5          12.8150    28.2420    99.4890 ha         1 Y9E       0.098000
     19 H6          13.6660    29.8770    97.8290 ha         1 Y9E       0.100000
     20 H7          14.2070    32.1820    98.5260 ha         1 Y9E       0.113500
     21 H8          15.7240    32.6590   102.2470 hc         1 Y9E       0.062700
     22 H9          16.1690    33.0800   100.6160 hc         1 Y9E       0.062700
@<TRIPOS>BOND
     1     1     2 1   
     2     1     8 1   
     3     1    14 1   
     4     1    15 1   
     5     2     3 ar  
     6     2     7 ar  
     7     3     4 ar  
     8     3    16 1   
     9     4     5 ar  
    10     4    17 1   
    11     5     6 ar  
    12     5    18 1   
    13     6     7 ar  
    14     6    19 1   
    15     7    20 1   
    16     8     9 1   
    17     8    21 1   
    18     8    22 1   
    19     9    10 1   
    20     9    11 2   
    21    10    12 1   
    22    10    13 1   
@<TRIPOS>SUBSTRUCTURE
     1 Y9E         1 TEMP              0 ****  ****    0 ROOT
