@<TRIPOS>MOLECULE
Y9H
   41    44     1     0     0
SMALL
No Charge or Current Charge


@<TRIPOS>ATOM
      1 C8         133.1500   106.5970   123.3080 cc         1 Y9H       0.497500
      2 C5         138.2500   107.4270   122.1060 c6         1 Y9H      -0.099900
      3 C6         136.8120   107.6940   121.5910 c6         1 Y9H       0.217300
      4 N1         136.0820   106.4040   121.4160 nh         1 Y9H      -0.771300
      5 C2         139.0360   106.4440   121.1900 c6         1 Y9H      -0.058700
      6 N2         134.1690   107.0040   122.4980 nc         1 Y9H      -0.770000
      7 N3         132.1400   107.3850   123.7160 nd         1 Y9H      -0.304400
      8 C4         136.7630   105.4310   120.5190 c6         1 Y9H       0.217300
      9 C1         139.4390   107.0600   119.8060 c3         1 Y9H      -0.106400
     10 C10        130.1700   106.8730   125.1990 ca         1 Y9H      -0.076000
     11 C11        129.5320   105.8670   125.9610 ca         1 Y9H      -0.110000
     12 C12        130.0790   104.5620   126.0320 ca         1 Y9H      -0.119000
     13 C13        131.2690   104.2500   125.3420 ca         1 Y9H      -0.092000
     14 C14        131.8650   105.2790   124.6020 ca         1 Y9H      -0.111200
     15 C15        133.8890   104.2980   123.6020 cc         1 Y9H      -0.004000
     16 C16        134.9310   104.6960   122.7780 cd         1 Y9H      -0.277000
     17 C17        140.3870   108.2800   119.8570 c3         1 Y9H       0.179600
     18 C3         138.2010   105.1420   121.0230 c6         1 Y9H      -0.099900
     19 C7         135.0320   106.0360   122.2540 cd         1 Y9H       0.678900
     20 C9         131.3520   106.5470   124.5200 ca         1 Y9H       0.128400
     21 F1         141.5510   107.9480   120.4680 f          1 Y9H      -0.282000
     22 N4         132.9830   105.3240   123.8400 na         1 Y9H      -0.123300
     23 H16        138.1860   107.0010   123.1170 hc         1 Y9H       0.055200
     24 H6         136.8560   108.2350   120.6350 h1         1 Y9H       0.063450
     25 H5         136.3040   108.3580   122.3060 h1         1 Y9H       0.063450
     26 H17        139.9770   106.1780   121.6930 hc         1 Y9H       0.066700
     27 H4         136.2010   104.4890   120.4410 h1         1 Y9H       0.063450
     28 H3         136.8110   105.8390   119.4990 h1         1 Y9H       0.063450
     29 H2         138.5460   107.3580   119.2450 hc         1 Y9H       0.051200
     30 H1         139.9270   106.2900   119.1970 hc         1 Y9H       0.051200
     31 H7         129.7560   107.8770   125.1400 ha         1 Y9H       0.132000
     32 H8         128.6140   106.0970   126.4960 ha         1 Y9H       0.114000
     33 H9         129.5790   103.7960   126.6210 ha         1 Y9H       0.113000
     34 H10        131.7010   103.2530   125.3870 ha         1 Y9H       0.113000
     35 H11        133.7330   103.3230   124.0460 h4         1 Y9H       0.143000
     36 H12        135.6990   103.9710   122.5410 ha         1 Y9H       0.135000
     37 H19        140.6130   108.6160   118.8370 h1         1 Y9H       0.047200
     38 H18        139.9240   109.1120   120.4010 h1         1 Y9H       0.047200
     39 H14        138.1440   104.6200   121.9880 hc         1 Y9H       0.055200
     40 H13        138.7040   104.4510   120.3330 hc         1 Y9H       0.055200
     41 H15        138.7880   108.3760   122.2200 hc         1 Y9H       0.055200
@<TRIPOS>BOND
     1     1     6 1   
     2     1     7 2   
     3     1    22 1   
     4     2     3 1   
     5     2     5 1   
     6     2    23 1   
     7     2    41 1   
     8     3     4 1   
     9     3    24 1   
    10     3    25 1   
    11     4     8 1   
    12     4    19 1   
    13     5     9 1   
    14     5    18 1   
    15     5    26 1   
    16     6    19 2   
    17     7    20 1   
    18     8    18 1   
    19     8    27 1   
    20     8    28 1   
    21     9    17 1   
    22     9    29 1   
    23     9    30 1   
    24    10    11 ar  
    25    10    20 ar  
    26    10    31 1   
    27    11    12 ar  
    28    11    32 1   
    29    12    13 ar  
    30    12    33 1   
    31    13    14 ar  
    32    13    34 1   
    33    14    20 ar  
    34    14    22 1   
    35    15    16 2   
    36    15    22 1   
    37    15    35 1   
    38    16    19 1   
    39    16    36 1   
    40    17    21 1   
    41    17    37 1   
    42    17    38 1   
    43    18    39 1   
    44    18    40 1   
@<TRIPOS>SUBSTRUCTURE
     1 Y9H         1 TEMP              0 ****  ****    0 ROOT
