@<TRIPOS>MOLECULE
Y9H
   41    44     1     0     0
SMALL
abcg2


@<TRIPOS>ATOM
      1 C8         133.3380   106.5500   123.4530 cc         1 Y9H       0.497500
      2 C5         137.8470   107.7010   121.8640 c6         1 Y9H      -0.099900
      3 C6         136.5220   107.5820   121.1060 c6         1 Y9H       0.217300
      4 N1         136.0200   106.2080   121.1880 nh         1 Y9H      -0.771300
      5 C2         138.8980   106.6880   121.3750 c6         1 Y9H      -0.058700
      6 N2         134.3550   106.8550   122.6440 nc         1 Y9H      -0.770000
      7 N3         132.5720   107.3930   124.1300 nd         1 Y9H      -0.304400
      8 C4         136.9520   105.2520   120.5890 c6         1 Y9H       0.217300
      9 C1         139.5110   107.0740   120.0180 c3         1 Y9H      -0.106400
     10 C10        130.6430   106.9740   125.6940 ca         1 Y9H      -0.076000
     11 C11        129.8750   105.9690   126.2720 ca         1 Y9H      -0.110000
     12 C12        130.1110   104.6130   126.0000 ca         1 Y9H      -0.119000
     13 C13        131.1290   104.2220   125.1360 ca         1 Y9H      -0.092000
     14 C14        131.8880   105.2310   124.5670 ca         1 Y9H      -0.111200
     15 C15        133.6400   104.1970   123.0820 cc         1 Y9H      -0.004000
     16 C16        134.6670   104.4880   122.2530 cd         1 Y9H      -0.277000
     17 C17        140.4540   108.2510   120.0770 c3         1 Y9H       0.179600
     18 C3         138.2840   105.2800   121.3380 c6         1 Y9H      -0.099900
     19 C7         135.0200   105.8710   122.0310 cd         1 Y9H       0.678900
     20 C9         131.6710   106.6040   124.8250 ca         1 Y9H       0.128400
     21 F1         141.5830   107.9260   120.8730 f          1 Y9H      -0.282000
     22 N4         132.9620   105.2110   123.6820 na         1 Y9H      -0.123300
     23 H16        137.6500   107.5280   122.9250 hc         1 Y9H       0.055200
     24 H6         136.6550   107.8210   120.0490 h1         1 Y9H       0.063450
     25 H5         135.7790   108.2560   121.5140 h1         1 Y9H       0.063450
     26 H17        139.7130   106.6710   122.1030 hc         1 Y9H       0.066700
     27 H4         136.5300   104.2540   120.5780 h1         1 Y9H       0.063450
     28 H3         137.0910   105.5470   119.5460 h1         1 Y9H       0.063450
     29 H2         138.7340   107.3220   119.2880 hc         1 Y9H       0.051200
     30 H1         140.0560   106.2190   119.6070 hc         1 Y9H       0.051200
     31 H7         130.4540   108.0180   125.9100 ha         1 Y9H       0.132000
     32 H8         129.0750   106.2380   126.9500 ha         1 Y9H       0.114000
     33 H9         129.4920   103.8590   126.4680 ha         1 Y9H       0.113000
     34 H10        131.3150   103.1770   124.9210 ha         1 Y9H       0.113000
     35 H11        133.3210   103.1890   123.3020 h4         1 Y9H       0.143000
     36 H12        135.1990   103.6750   121.7900 ha         1 Y9H       0.135000
     37 H19        140.8350   108.5070   119.0880 h1         1 Y9H       0.047200
     38 H18        140.0020   109.1340   120.5310 h1         1 Y9H       0.047200
     39 H14        138.1080   104.9320   122.3610 hc         1 Y9H       0.055200
     40 H13        138.9770   104.5780   120.8690 hc         1 Y9H       0.055200
     41 H15        138.2180   108.7240   121.7720 hc         1 Y9H       0.055200
@<TRIPOS>BOND
     1     1     6 1   
     2     1     7 2   
     3     1    22 1   
     4     2     3 1   
     5     2     5 1   
     6     2    23 1   
     7     2    41 1   
     8     3     4 1   
     9     3    24 1   
    10     3    25 1   
    11     4     8 1   
    12     4    19 1   
    13     5     9 1   
    14     5    18 1   
    15     5    26 1   
    16     6    19 2   
    17     7    20 1   
    18     8    18 1   
    19     8    27 1   
    20     8    28 1   
    21     9    17 1   
    22     9    29 1   
    23     9    30 1   
    24    10    11 ar  
    25    10    20 ar  
    26    10    31 1   
    27    11    12 ar  
    28    11    32 1   
    29    12    13 ar  
    30    12    33 1   
    31    13    14 ar  
    32    13    34 1   
    33    14    20 ar  
    34    14    22 1   
    35    15    16 2   
    36    15    22 1   
    37    15    35 1   
    38    16    19 1   
    39    16    36 1   
    40    17    21 1   
    41    17    37 1   
    42    17    38 1   
    43    18    39 1   
    44    18    40 1   
@<TRIPOS>SUBSTRUCTURE
     1 Y9H         1 TEMP              0 ****  ****    0 ROOT
