@<TRIPOS>MOLECULE
Y9J
   61    63     1     0     0
SMALL
abcg2


@<TRIPOS>ATOM
      1 C4         126.8410   116.1240    91.0630 c3         1 Y9J      -0.067400
      2 C5         127.7080   117.2040    91.7140 c3         1 Y9J      -0.107400
      3 C6         129.2040   116.8780    91.8120 c3         1 Y9J       0.172300
      4 C7         129.9950   117.2830    90.5770 c3         1 Y9J      -0.073400
      5 C8         131.4430   116.8080    90.5850 c3         1 Y9J      -0.066400
      6 C10        132.5540   118.6640    89.2410 c5         1 Y9J       0.171300
      7 C13        133.5640   116.4030    89.2400 c5         1 Y9J      -0.048700
      8 C15        133.4820   115.9820    86.7920 ca         1 Y9J      -0.066300
      9 C17        135.1730   117.6140    87.6200 c6         1 Y9J       0.000900
     10 C20        132.5320   116.1100    84.5910 ca         1 Y9J      -0.085000
     11 C21        132.6220   115.4780    85.8190 ca         1 Y9J      -0.183000
     12 C22        134.9080   119.4990    83.8670 c3         1 Y9J       0.001600
     13 C1         125.3960   117.6410    88.7460 c3         1 Y9J      -0.087100
     14 C2         126.8040   117.0650    88.6610 c3         1 Y9J      -0.077400
     15 C3         127.0320   115.8600    89.5700 c3         1 Y9J      -0.072400
     16 C9         132.2110   117.1620    89.3110 c5         1 Y9J      -0.099700
     17 C11        134.0140   118.7220    89.6600 c5         1 Y9J      -0.068400
     18 C12        134.6630   117.4670    89.0710 c5         1 Y9J      -0.048700
     19 C14        133.6050   115.3440    88.1440 c6         1 Y9J      -0.017100
     20 C16        134.2380   117.1260    86.5490 ca         1 Y9J      -0.111300
     21 C18        134.1490   117.7510    85.2960 ca         1 Y9J       0.212100
     22 C19        133.2910   117.2420    84.3210 ca         1 Y9J      -0.185000
     23 O1         134.9550   118.8120    85.1010 os         1 Y9J      -0.332100
     24 C23        133.6640   120.3920    83.6590 c          1 Y9J       0.700000
     25 O2         133.5440   120.8250    82.4980 o          1 Y9J      -0.716000
     26 O3         132.9490   120.6220    84.6470 o          1 Y9J      -0.716000
     27 O4         132.4480   119.2090    87.9410 oh         1 Y9J      -0.619000
     28 O5         129.8040   117.5490    92.9100 oh         1 Y9J      -0.659000
     29 H13        125.7940   116.3840    91.2410 hc         1 Y9J       0.030700
     30 H14        127.0020   115.1840    91.6020 hc         1 Y9J       0.030700
     31 H16        127.5650   118.1720    91.2210 hc         1 Y9J       0.042700
     32 H15        127.3280   117.3340    92.7320 hc         1 Y9J       0.042700
     33 H1         129.3030   115.7880    91.9430 h1         1 Y9J       0.021700
     34 H17        129.9400   118.3720    90.4730 hc         1 Y9J       0.051200
     35 H18        129.5020   116.8750    89.6930 hc         1 Y9J       0.051200
     36 H20        131.4510   115.7190    90.7050 hc         1 Y9J       0.038200
     37 H19        131.9780   117.2080    91.4510 hc         1 Y9J       0.038200
     38 H3         131.9240   119.2390    89.9340 h1         1 Y9J       0.025700
     39 H5         133.7210   115.9020    90.2010 hc         1 Y9J       0.028700
     40 H26        136.1020   117.0390    87.5330 hc         1 Y9J       0.048200
     41 H25        135.4590   118.6500    87.4420 hc         1 Y9J       0.048200
     42 H28        131.8660   115.7260    83.8280 ha         1 Y9J       0.093000
     43 H29        132.0290   114.5960    86.0290 ha         1 Y9J       0.088000
     44 H31        135.0290   118.8080    83.0250 h1         1 Y9J       0.030700
     45 H30        135.7920   120.1420    83.8670 h1         1 Y9J       0.030700
     46 H6         125.2540   118.4440    88.0220 hc         1 Y9J       0.028367
     47 H7         124.6440   116.8750    88.5410 hc         1 Y9J       0.028367
     48 H8         125.1830   118.0540    89.7330 hc         1 Y9J       0.028367
     49 H9         127.0050   116.7630    87.6300 hc         1 Y9J       0.045700
     50 H10        127.5310   117.8510    88.8860 hc         1 Y9J       0.045700
     51 H12        126.3350   115.0680    89.2780 hc         1 Y9J       0.037700
     52 H11        128.0290   115.4520    89.3850 hc         1 Y9J       0.037700
     53 H2         131.5780   116.8900    88.4570 hc         1 Y9J       0.062700
     54 H21        134.0620   118.6670    90.7520 hc         1 Y9J       0.045200
     55 H22        134.5020   119.6540    89.3670 hc         1 Y9J       0.045200
     56 H4         135.5290   117.1930    89.6780 hc         1 Y9J       0.028700
     57 H24        132.8090   114.6100    88.2920 hc         1 Y9J       0.033700
     58 H23        134.5490   114.7900    88.2150 hc         1 Y9J       0.033700
     59 H27        133.2020   117.7100    83.3510 ha         1 Y9J       0.138000
     60 H33        131.6340   118.8900    87.5390 ho         1 Y9J       0.445000
     61 H34        129.3750   117.2460    93.7160 ho         1 Y9J       0.429000
@<TRIPOS>BOND
     1     1     2 1   
     2     1    15 1   
     3     1    29 1   
     4     1    30 1   
     5     2     3 1   
     6     2    31 1   
     7     2    32 1   
     8     3     4 1   
     9     3    28 1   
    10     3    33 1   
    11     4     5 1   
    12     4    34 1   
    13     4    35 1   
    14     5    16 1   
    15     5    36 1   
    16     5    37 1   
    17     6    16 1   
    18     6    17 1   
    19     6    27 1   
    20     6    38 1   
    21     7    16 1   
    22     7    18 1   
    23     7    19 1   
    24     7    39 1   
    25     8    11 ar  
    26     8    19 1   
    27     8    20 ar  
    28     9    18 1   
    29     9    20 1   
    30     9    40 1   
    31     9    41 1   
    32    10    11 ar  
    33    10    22 ar  
    34    10    42 1   
    35    11    43 1   
    36    12    23 1   
    37    12    24 1   
    38    12    44 1   
    39    12    45 1   
    40    13    14 1   
    41    13    46 1   
    42    13    47 1   
    43    13    48 1   
    44    14    15 1   
    45    14    49 1   
    46    14    50 1   
    47    15    51 1   
    48    15    52 1   
    49    16    53 1   
    50    17    18 1   
    51    17    54 1   
    52    17    55 1   
    53    18    56 1   
    54    19    57 1   
    55    19    58 1   
    56    20    21 ar  
    57    21    22 ar  
    58    21    23 1   
    59    22    59 1   
    60    24    25 1   
    61    24    26 1   
    62    27    60 1   
    63    28    61 1   
@<TRIPOS>SUBSTRUCTURE
     1 Y9J         1 TEMP              0 ****  ****    0 ROOT
