@<TRIPOS>MOLECULE
Y9J
   61    63     1     0     0
SMALL
No Charge or Current Charge


@<TRIPOS>ATOM
      1 C4         126.7110   116.2810    90.1920 c3         1 Y9J      -0.067400
      2 C5         127.6130   116.6530    91.4020 c3         1 Y9J      -0.107400
      3 C6         129.0770   116.1280    91.3490 c3         1 Y9J       0.172300
      4 C7         130.0770   117.0910    90.6530 c3         1 Y9J      -0.073400
      5 C8         131.5040   116.5090    90.4940 c3         1 Y9J      -0.066400
      6 C10        132.7910   118.8010    90.3280 c5         1 Y9J       0.171300
      7 C13        133.9210   116.7950    89.5350 c5         1 Y9J      -0.048700
      8 C15        133.9330   115.8170    87.1450 ca         1 Y9J      -0.066300
      9 C17        134.3520   118.3460    87.4880 c6         1 Y9J       0.000900
     10 C20        133.5680   114.9130    84.9080 ca         1 Y9J      -0.085000
     11 C21        133.6780   114.7280    86.2920 ca         1 Y9J      -0.183000
     12 C22        133.9300   118.9100    83.2830 c3         1 Y9J       0.001600
     13 C1         125.7230   119.1170    89.0870 c3         1 Y9J      -0.087100
     14 C2         127.0800   118.4570    88.7690 c3         1 Y9J      -0.077400
     15 C3         127.0630   116.9070    88.8180 c3         1 Y9J      -0.072400
     16 C9         132.4890   117.3990    89.6860 c5         1 Y9J      -0.099700
     17 C11        134.2980   119.0890    90.0010 c5         1 Y9J      -0.068400
     18 C12        134.6960   118.0020    88.9650 c5         1 Y9J      -0.048700
     19 C14        134.0670   115.5370    88.6490 c6         1 Y9J      -0.017100
     20 C16        134.0900   117.1170    86.5950 ca         1 Y9J      -0.111300
     21 C18        133.9650   117.3040    85.1960 ca         1 Y9J       0.212100
     22 C19        133.7110   116.1940    84.3590 ca         1 Y9J      -0.185000
     23 O1         134.1170   118.5840    84.6850 os         1 Y9J      -0.332100
     24 C23        132.4460   118.8540    82.8010 c          1 Y9J       0.700000
     25 O2         132.2440   118.9290    81.5960 o          1 Y9J      -0.716000
     26 O3         131.5440   118.7390    83.6200 o          1 Y9J      -0.716000
     27 O4         131.9420   119.8180    89.8010 oh         1 Y9J      -0.619000
     28 O5         129.5210   115.9000    92.6910 oh         1 Y9J      -0.659000
     29 H13        125.6770   116.5490    90.4410 hc         1 Y9J       0.030700
     30 H14        126.7130   115.1900    90.0820 hc         1 Y9J       0.030700
     31 H16        127.6110   117.7390    91.5570 hc         1 Y9J       0.042700
     32 H15        127.1230   116.2310    92.2880 hc         1 Y9J       0.042700
     33 H1         129.0770   115.1740    90.8050 h1         1 Y9J       0.021700
     34 H17        130.1230   118.0240    91.2270 hc         1 Y9J       0.051200
     35 H18        129.7080   117.3520    89.6580 hc         1 Y9J       0.051200
     36 H20        131.4130   115.5320    90.0030 hc         1 Y9J       0.038200
     37 H19        131.9240   116.3130    91.4880 hc         1 Y9J       0.038200
     38 H3         132.6690   118.7550    91.4200 h1         1 Y9J       0.025700
     39 H5         134.3170   116.5030    90.5170 hc         1 Y9J       0.028700
     40 H26        135.1720   118.9470    87.0710 hc         1 Y9J       0.048200
     41 H25        133.4660   118.9940    87.4510 hc         1 Y9J       0.048200
     42 H28        133.3720   114.0610    84.2590 ha         1 Y9J       0.093000
     43 H29        133.5690   113.7280    86.7050 ha         1 Y9J       0.088000
     44 H31        134.5350   118.2520    82.6470 h1         1 Y9J       0.030700
     45 H30        134.2770   119.9350    83.1030 h1         1 Y9J       0.030700
     46 H6         125.7890   120.2040    88.9520 hc         1 Y9J       0.028367
     47 H7         124.9390   118.7370    88.4210 hc         1 Y9J       0.028367
     48 H8         125.4240   118.9240    90.1240 hc         1 Y9J       0.028367
     49 H9         127.3880   118.7660    87.7620 hc         1 Y9J       0.045700
     50 H10        127.8390   118.8480    89.4550 hc         1 Y9J       0.045700
     51 H12        126.3310   116.5490    88.0840 hc         1 Y9J       0.037700
     52 H11        128.0280   116.5190    88.4770 hc         1 Y9J       0.037700
     53 H2         132.0320   117.5220    88.6970 hc         1 Y9J       0.062700
     54 H21        134.9040   118.9920    90.9090 hc         1 Y9J       0.045200
     55 H22        134.4670   120.1040    89.6250 hc         1 Y9J       0.045200
     56 H4         135.7760   117.8130    88.9800 hc         1 Y9J       0.028700
     57 H24        133.3440   114.7720    88.9600 hc         1 Y9J       0.033700
     58 H23        135.0580   115.0980    88.8250 hc         1 Y9J       0.033700
     59 H27        133.6210   116.3080    83.2830 ha         1 Y9J       0.138000
     60 H33        131.0240   119.5670    90.0330 ho         1 Y9J       0.445000
     61 H34        128.9370   115.2090    93.0710 ho         1 Y9J       0.429000
@<TRIPOS>BOND
     1     1     2 1   
     2     1    15 1   
     3     1    29 1   
     4     1    30 1   
     5     2     3 1   
     6     2    31 1   
     7     2    32 1   
     8     3     4 1   
     9     3    28 1   
    10     3    33 1   
    11     4     5 1   
    12     4    34 1   
    13     4    35 1   
    14     5    16 1   
    15     5    36 1   
    16     5    37 1   
    17     6    16 1   
    18     6    17 1   
    19     6    27 1   
    20     6    38 1   
    21     7    16 1   
    22     7    18 1   
    23     7    19 1   
    24     7    39 1   
    25     8    11 ar  
    26     8    19 1   
    27     8    20 ar  
    28     9    18 1   
    29     9    20 1   
    30     9    40 1   
    31     9    41 1   
    32    10    11 ar  
    33    10    22 ar  
    34    10    42 1   
    35    11    43 1   
    36    12    23 1   
    37    12    24 1   
    38    12    44 1   
    39    12    45 1   
    40    13    14 1   
    41    13    46 1   
    42    13    47 1   
    43    13    48 1   
    44    14    15 1   
    45    14    49 1   
    46    14    50 1   
    47    15    51 1   
    48    15    52 1   
    49    16    53 1   
    50    17    18 1   
    51    17    54 1   
    52    17    55 1   
    53    18    56 1   
    54    19    57 1   
    55    19    58 1   
    56    20    21 ar  
    57    21    22 ar  
    58    21    23 1   
    59    22    59 1   
    60    24    25 1   
    61    24    26 1   
    62    27    60 1   
    63    28    61 1   
@<TRIPOS>SUBSTRUCTURE
     1 Y9J         1 TEMP              0 ****  ****    0 ROOT
