@<TRIPOS>MOLECULE
Y9M
  107   108     1     0     0
SMALL
abcg2


@<TRIPOS>ATOM
      1 N1          17.6170   -17.6630    37.5580 ns         1 Y9M      -0.490900
      2 N3          17.8260   -17.0850    34.1900 ns         1 Y9M      -0.480900
      3 C4          17.5460   -19.0490    41.6520 c          1 Y9M       0.577100
      4 C5          17.0290   -20.2320    42.4610 c3         1 Y9M       0.115300
      5 C6          17.8170   -20.3700    43.7490 c3         1 Y9M      -0.094400
      6 C7          17.3050   -21.3670    44.8040 c3         1 Y9M      -0.039000
      7 C8          18.1800   -21.1770    46.0470 c3         1 Y9M      -0.086433
      8 C10         15.8530   -21.0690    45.1770 c3         1 Y9M      -0.086433
      9 C13         20.7670   -17.9310    40.9620 c3         1 Y9M      -0.109600
     10 C15         14.5910   -17.7790    35.2480 c3         1 Y9M      -0.087100
     11 C17         14.8030   -18.1810    38.9470 ca         1 Y9M      -0.097500
     12 C20         14.3550   -20.8430    38.3490 ca         1 Y9M      -0.110500
     13 C21         14.6910   -19.9500    37.3410 ca         1 Y9M      -0.097500
     14 C22         17.3900   -16.6910    35.3910 c          1 Y9M       0.592100
     15 C24         18.8190   -16.8480    31.9840 c3         1 Y9M      -0.105100
     16 C26         21.1830   -13.6290    34.1210 c3         1 Y9M       0.042700
     17 C1          16.8790   -17.7810    36.3240 c3         1 Y9M       0.040700
     18 C2          18.1060   -18.7130    38.2380 c          1 Y9M       0.605100
     19 O1          18.0760   -19.8620    37.8320 o          1 Y9M      -0.592100
     20 C3          18.7040   -18.3680    39.6000 c3         1 Y9M      -0.002300
     21 N2          18.2220   -19.3560    40.5360 ns         1 Y9M      -0.485900
     22 O2          17.3500   -17.9160    42.0610 o          1 Y9M      -0.610100
     23 F1          17.1110   -21.4000    41.7020 f          1 Y9M      -0.264000
     24 C9          17.4290   -22.8190    44.3370 c3         1 Y9M      -0.086433
     25 C11         20.2580   -18.2850    39.5670 c3         1 Y9M       0.189000
     26 C12         20.6950   -17.2120    38.5760 c3         1 Y9M      -0.109600
     27 O3          20.8200   -19.5020    39.1250 oh         1 Y9M      -0.645000
     28 C14         15.3590   -17.6320    36.5590 c3         1 Y9M      -0.028400
     29 C16         14.9210   -18.6050    37.6260 ca         1 Y9M      -0.083300
     30 C18         14.4670   -19.0710    39.9590 ca         1 Y9M      -0.110500
     31 C19         14.2480   -20.4090    39.6640 ca         1 Y9M      -0.107000
     32 O4          17.3950   -15.5200    35.7440 o          1 Y9M      -0.607100
     33 C23         18.4560   -16.1510    33.2900 c3         1 Y9M       0.038700
     34 C25         19.7260   -15.5950    33.9410 c          1 Y9M       0.591100
     35 O5          20.4370   -16.3000    34.6380 o          1 Y9M      -0.603100
     36 N4          20.0130   -14.3240    33.6230 ns         1 Y9M      -0.490900
     37 C27         21.7070   -12.6590    33.0610 c3         1 Y9M      -0.085400
     38 O6          22.9660   -11.3070    34.5730 os         1 Y9M      -0.449000
     39 C29         24.2100   -10.8380    35.0240 c3         1 Y9M       0.146900
     40 C30         20.7760   -12.8790    35.3960 c          1 Y9M       0.606100
     41 O7          19.8940   -12.0330    35.3090 o          1 Y9M      -0.611100
     42 N5          21.3640   -13.2040    36.5620 n          1 Y9M      -0.389800
     43 C31         22.3840   -14.2270    36.7110 c3         1 Y9M       0.084300
     44 C32         21.0610   -12.4340    37.7570 c3         1 Y9M       0.143300
     45 C33         20.1770   -13.1840    38.7220 ca         1 Y9M      -0.112300
     46 C34         20.6160   -13.4810    40.0080 ca         1 Y9M      -0.091000
     47 C35         19.7960   -14.1640    40.8990 ca         1 Y9M      -0.125000
     48 C36         18.5250   -14.5600    40.5100 ca         1 Y9M      -0.113000
     49 C37         18.0790   -14.2680    39.2250 ca         1 Y9M      -0.125000
     50 C38         18.9000   -13.5890    38.3380 ca         1 Y9M      -0.091000
     51 H1          17.6340   -16.7520    37.9920 hn         1 Y9M       0.333500
     52 H2          17.8800   -18.0700    33.9810 hn         1 Y9M       0.329500
     53 H3          15.9690   -20.0500    42.6570 h1         1 Y9M       0.082700
     54 H4          18.8570   -20.6090    43.4980 hc         1 Y9M       0.060700
     55 H5          17.8350   -19.3770    44.2070 hc         1 Y9M       0.060700
     56 H6          18.1000   -20.1590    46.4340 hc         1 Y9M       0.035922
     57 H7          17.8810   -21.8620    46.8420 hc         1 Y9M       0.035922
     58 H8          19.2330   -21.3670    45.8240 hc         1 Y9M       0.035922
     59 H9          15.7260   -20.0270    45.4810 hc         1 Y9M       0.035922
     60 H10         15.1640   -21.2630    44.3530 hc         1 Y9M       0.035922
     61 H11         15.5370   -21.6970    46.0120 hc         1 Y9M       0.035922
     62 H12         20.5210   -18.7030    41.6940 hc         1 Y9M       0.050033
     63 H13         21.8530   -17.8240    40.9440 hc         1 Y9M       0.050033
     64 H14         20.3410   -16.9900    41.3100 hc         1 Y9M       0.050033
     65 H15         13.5170   -17.7630    35.4290 hc         1 Y9M       0.040033
     66 H16         14.8170   -16.9640    34.5600 hc         1 Y9M       0.040033
     67 H17         14.8320   -18.7130    34.7390 hc         1 Y9M       0.040033
     68 H18         14.9780   -17.1390    39.1890 ha         1 Y9M       0.111000
     69 H19         14.1820   -21.8840    38.1060 ha         1 Y9M       0.113000
     70 H20         14.7830   -20.3140    36.3250 ha         1 Y9M       0.111000
     71 H21         17.9260   -17.2540    31.5100 hc         1 Y9M       0.052033
     72 H22         19.2760   -16.1420    31.2930 hc         1 Y9M       0.052033
     73 H23         19.5230   -17.6630    32.1560 hc         1 Y9M       0.052033
     74 H24         21.9530   -14.3770    34.2990 h1         1 Y9M       0.083700
     75 H25         23.7880   -12.8980    33.5410 h1         1 Y9M       0.024200
     76 H26         23.4260   -11.4740    32.5630 h1         1 Y9M       0.024200
     77 H27         17.0790   -18.7710    35.9100 h1         1 Y9M       0.089700
     78 H28         18.3370   -17.3960    39.9350 h1         1 Y9M       0.092700
     79 H29         18.2540   -20.3220    40.2470 hn         1 Y9M       0.348500
     80 H30         17.1920   -23.5000    45.1580 hc         1 Y9M       0.035922
     81 H31         16.7500   -23.0510    43.5190 hc         1 Y9M       0.035922
     82 H32         18.4460   -23.0430    44.0070 hc         1 Y9M       0.035922
     83 H33         20.2500   -16.2490    38.8300 hc         1 Y9M       0.050033
     84 H34         21.7790   -17.0940    38.6090 hc         1 Y9M       0.050033
     85 H35         20.4170   -17.4520    37.5490 hc         1 Y9M       0.050033
     86 H36         20.7140   -20.1660    39.8160 ho         1 Y9M       0.443000
     87 H37         15.1900   -16.6210    36.9440 hc         1 Y9M       0.069700
     88 H38         14.3810   -18.7160    40.9790 ha         1 Y9M       0.113000
     89 H39         13.9860   -21.1060    40.4500 ha         1 Y9M       0.112000
     90 H40         17.7610   -15.3350    33.0740 h1         1 Y9M       0.074700
     91 H41         19.3180   -13.7740    33.1410 hn         1 Y9M       0.327500
     92 H42         20.9820   -11.8610    32.8850 hc         1 Y9M       0.064200
     93 H43         21.8100   -13.2100    32.1240 hc         1 Y9M       0.064200
     94 H44         24.0430   -10.2650    35.9350 h1         1 Y9M       0.028700
     95 H45         24.8990   -11.6590    35.2540 h1         1 Y9M       0.028700
     96 H46         24.6960   -10.1860    34.2890 h1         1 Y9M       0.028700
     97 H47         22.4680   -14.4810    37.7660 h1         1 Y9M       0.044033
     98 H48         22.1190   -15.1410    36.1880 h1         1 Y9M       0.044033
     99 H49         23.3630   -13.8840    36.3680 h1         1 Y9M       0.044033
    100 H50         22.0020   -12.1680    38.2450 h1         1 Y9M       0.063700
    101 H51         20.5840   -11.5020    37.4590 h1         1 Y9M       0.063700
    102 H52         21.6090   -13.1760    40.3170 ha         1 Y9M       0.123000
    103 H53         20.1550   -14.3900    41.8950 ha         1 Y9M       0.112000
    104 H54         17.8900   -15.1030    41.1970 ha         1 Y9M       0.125000
    105 H55         17.0840   -14.5660    38.9170 ha         1 Y9M       0.112000
    106 H56         18.5380   -13.3650    37.3430 ha         1 Y9M       0.123000
    107 C28         23.0640   -12.0810    33.4050 c3         1 Y9M       0.160600
@<TRIPOS>BOND
     1     1    17 1   
     2     1    18 1   
     3     1    51 1   
     4     2    14 1   
     5     2    33 1   
     6     2    52 1   
     7     3     4 1   
     8     3    21 1   
     9     3    22 2   
    10     4     5 1   
    11     4    23 1   
    12     4    53 1   
    13     5     6 1   
    14     5    54 1   
    15     5    55 1   
    16     6     7 1   
    17     6     8 1   
    18     6    24 1   
    19     7    56 1   
    20     7    57 1   
    21     7    58 1   
    22     8    59 1   
    23     8    60 1   
    24     8    61 1   
    25     9    25 1   
    26     9    62 1   
    27     9    63 1   
    28     9    64 1   
    29    10    28 1   
    30    10    65 1   
    31    10    66 1   
    32    10    67 1   
    33    11    29 ar  
    34    11    30 ar  
    35    11    68 1   
    36    12    13 ar  
    37    12    31 ar  
    38    12    69 1   
    39    13    29 ar  
    40    13    70 1   
    41    14    17 1   
    42    14    32 2   
    43    15    33 1   
    44    15    71 1   
    45    15    72 1   
    46    15    73 1   
    47    16    36 1   
    48    16    37 1   
    49    16    40 1   
    50    16    74 1   
    51    17    28 1   
    52    17    77 1   
    53    18    19 2   
    54    18    20 1   
    55    20    21 1   
    56    20    25 1   
    57    20    78 1   
    58    21    79 1   
    59    24    80 1   
    60    24    81 1   
    61    24    82 1   
    62    25    26 1   
    63    25    27 1   
    64    26    83 1   
    65    26    84 1   
    66    26    85 1   
    67    27    86 1   
    68    28    29 1   
    69    28    87 1   
    70    30    31 ar  
    71    30    88 1   
    72    31    89 1   
    73    33    34 1   
    74    33    90 1   
    75    34    35 2   
    76    34    36 1   
    77    36    91 1   
    78    37    92 1   
    79    37    93 1   
    80    37   107 1   
    81    38    39 1   
    82    38   107 1   
    83    39    94 1   
    84    39    95 1   
    85    39    96 1   
    86    40    41 2   
    87    40    42 1   
    88    42    43 1   
    89    42    44 1   
    90    43    97 1   
    91    43    98 1   
    92    43    99 1   
    93    44    45 1   
    94    44   100 1   
    95    44   101 1   
    96    45    46 ar  
    97    45    50 ar  
    98    46    47 ar  
    99    46   102 1   
   100    47    48 ar  
   101    47   103 1   
   102    48    49 ar  
   103    48   104 1   
   104    49    50 ar  
   105    49   105 1   
   106    50   106 1   
   107    75   107 1   
   108    76   107 1   
@<TRIPOS>SUBSTRUCTURE
     1 Y9M         1 TEMP              0 ****  ****    0 ROOT
