@<TRIPOS>MOLECULE
Y9M
  107   108     1     0     0
SMALL
No Charge or Current Charge


@<TRIPOS>ATOM
      1 N1          17.7880   -17.5970    37.4290 ns         1 Y9M      -0.490900
      2 N3          17.6860   -16.9490    33.8690 ns         1 Y9M      -0.480900
      3 C4          17.6790   -19.0990    41.7940 c          1 Y9M       0.577100
      4 C5          17.1640   -20.3610    42.5360 c3         1 Y9M       0.115300
      5 C6          18.0300   -20.6810    43.7900 c3         1 Y9M      -0.094400
      6 C7          17.4110   -21.6230    44.8780 c3         1 Y9M      -0.039000
      7 C8          18.4510   -21.7940    46.0170 c3         1 Y9M      -0.086433
      8 C10         16.1210   -21.0000    45.4790 c3         1 Y9M      -0.086433
      9 C13         20.6990   -17.5730    41.1100 c3         1 Y9M      -0.109600
     10 C15         14.6970   -18.0590    35.1350 c3         1 Y9M      -0.087100
     11 C17         14.8560   -17.8890    38.8550 ca         1 Y9M      -0.097500
     12 C20         14.6710   -20.6840    38.6880 ca         1 Y9M      -0.110500
     13 C21         15.0020   -19.9330    37.5460 ca         1 Y9M      -0.097500
     14 C22         17.5120   -16.6050    35.1940 c          1 Y9M       0.592100
     15 C24         18.1720   -16.6200    31.4490 c3         1 Y9M      -0.105100
     16 C26         21.1700   -13.8040    34.1460 c3         1 Y9M       0.042700
     17 C1          17.0530   -17.7360    36.1500 c3         1 Y9M       0.040700
     18 C2          18.2330   -18.6520    38.1980 c          1 Y9M       0.605100
     19 O1          18.1910   -19.8090    37.7960 o          1 Y9M      -0.592100
     20 C3          18.7200   -18.2720    39.6200 c3         1 Y9M      -0.002300
     21 N2          18.2580   -19.3270    40.5620 ns         1 Y9M      -0.485900
     22 O2          17.5620   -17.9680    42.2500 o          1 Y9M      -0.610100
     23 F1          17.1220   -21.4450    41.7130 f          1 Y9M      -0.264000
     24 C9          17.0820   -23.0260    44.3010 c3         1 Y9M      -0.086433
     25 C11         20.2650   -18.0190    39.6930 c3         1 Y9M       0.189000
     26 C12         20.7340   -16.9710    38.6540 c3         1 Y9M      -0.109600
     27 O3          20.9590   -19.2360    39.4080 oh         1 Y9M      -0.645000
     28 C14         15.5130   -17.6900    36.3990 c3         1 Y9M      -0.028400
     29 C16         15.0970   -18.5260    37.6190 ca         1 Y9M      -0.083300
     30 C18         14.5270   -18.6420    39.9960 ca         1 Y9M      -0.110500
     31 C19         14.4340   -20.0400    39.9130 ca         1 Y9M      -0.107000
     32 O4          17.7360   -15.4680    35.5890 o          1 Y9M      -0.607100
     33 C23         18.2580   -16.0250    32.8690 c3         1 Y9M       0.038700
     34 C25         19.7210   -15.6840    33.2760 c          1 Y9M       0.591100
     35 O5          20.5760   -16.5400    33.4730 o          1 Y9M      -0.603100
     36 N4          19.9820   -14.3410    33.4480 ns         1 Y9M      -0.490900
     37 C27         22.0840   -13.0600    33.1370 c3         1 Y9M      -0.085400
     38 O6          23.2210   -11.5480    34.6410 os         1 Y9M      -0.449000
     39 C29         24.4070   -11.0540    35.2810 c3         1 Y9M       0.146900
     40 C30         20.6690   -12.9010    35.3260 c          1 Y9M       0.606100
     41 O7          19.7560   -12.1020    35.1350 o          1 Y9M      -0.611100
     42 N5          21.2550   -13.0250    36.6150 n          1 Y9M      -0.389800
     43 C31         22.2870   -14.0390    36.9210 c3         1 Y9M       0.084300
     44 C32         20.7480   -12.2310    37.7580 c3         1 Y9M       0.143300
     45 C33         19.8290   -13.0280    38.6810 ca         1 Y9M      -0.112300
     46 C34         20.2080   -13.2900    40.0130 ca         1 Y9M      -0.091000
     47 C35         19.3570   -14.0210    40.8610 ca         1 Y9M      -0.125000
     48 C36         18.1260   -14.5020    40.3830 ca         1 Y9M      -0.113000
     49 C37         17.7440   -14.2450    39.0560 ca         1 Y9M      -0.125000
     50 C38         18.5910   -13.5070    38.2100 ca         1 Y9M      -0.091000
     51 H1          17.8860   -16.6660    37.8180 hn         1 Y9M       0.333500
     52 H2          17.5030   -17.9110    33.6050 hn         1 Y9M       0.329500
     53 H3          16.1370   -20.1270    42.8370 h1         1 Y9M       0.082700
     54 H4          18.9860   -21.0980    43.4490 hc         1 Y9M       0.060700
     55 H5          18.2810   -19.7300    44.2770 hc         1 Y9M       0.060700
     56 H6          18.7040   -20.8260    46.4680 hc         1 Y9M       0.035922
     57 H7          18.0630   -22.4430    46.8130 hc         1 Y9M       0.035922
     58 H8          19.3780   -22.2440    45.6390 hc         1 Y9M       0.035922
     59 H9          16.3130   -19.9880    45.8570 hc         1 Y9M       0.035922
     60 H10         15.3170   -20.9410    44.7370 hc         1 Y9M       0.035922
     61 H11         15.7500   -21.6050    46.3150 hc         1 Y9M       0.035922
     62 H12         20.4980   -18.3500    41.8570 hc         1 Y9M       0.050033
     63 H13         21.7730   -17.3540    41.1420 hc         1 Y9M       0.050033
     64 H14         20.1610   -16.6690    41.4130 hc         1 Y9M       0.050033
     65 H15         13.6240   -18.0670    35.3620 hc         1 Y9M       0.040033
     66 H16         14.8630   -17.3280    34.3350 hc         1 Y9M       0.040033
     67 H17         14.9750   -19.0490    34.7540 hc         1 Y9M       0.040033
     68 H18         14.9350   -16.8080    38.9380 ha         1 Y9M       0.111000
     69 H19         14.6070   -21.7680    38.6230 ha         1 Y9M       0.113000
     70 H20         15.2060   -20.4510    36.6130 ha         1 Y9M       0.111000
     71 H21         17.1290   -16.8260    31.1790 hc         1 Y9M       0.052033
     72 H22         18.5820   -15.9170    30.7140 hc         1 Y9M       0.052033
     73 H23         18.7390   -17.5570    31.3820 hc         1 Y9M       0.052033
     74 H24         21.7350   -14.6460    34.5580 h1         1 Y9M       0.083700
     75 H25         23.9560   -13.4570    34.1680 h1         1 Y9M       0.024200
     76 H26         24.0740   -12.2470    32.8700 h1         1 Y9M       0.024200
     77 H27         17.3190   -18.6970    35.6900 h1         1 Y9M       0.089700
     78 H28         18.2110   -17.3350    39.8800 h1         1 Y9M       0.092700
     79 H29         18.2300   -20.2880    40.2310 hn         1 Y9M       0.348500
     80 H30         16.7690   -23.7120    45.0970 hc         1 Y9M       0.035922
     81 H31         16.2640   -22.9790    43.5730 hc         1 Y9M       0.035922
     82 H32         17.9590   -23.4610    43.8050 hc         1 Y9M       0.035922
     83 H33         20.1930   -16.0280    38.7790 hc         1 Y9M       0.050033
     84 H34         21.8050   -16.7620    38.7670 hc         1 Y9M       0.050033
     85 H35         20.5780   -17.3230    37.6270 hc         1 Y9M       0.050033
     86 H36         20.7220   -19.8690    40.1180 ho         1 Y9M       0.443000
     87 H37         15.2630   -16.6430    36.6200 hc         1 Y9M       0.069700
     88 H38         14.3480   -18.1400    40.9440 ha         1 Y9M       0.113000
     89 H39         14.1820   -20.6240    40.7950 ha         1 Y9M       0.112000
     90 H40         17.6740   -15.0950    32.8900 h1         1 Y9M       0.074700
     91 H41         19.2040   -13.7070    33.2960 hn         1 Y9M       0.327500
     92 H42         21.5540   -12.1910    32.7280 hc         1 Y9M       0.064200
     93 H43         22.2800   -13.7290    32.2910 hc         1 Y9M       0.064200
     94 H44         24.1540   -10.2510    35.9850 h1         1 Y9M       0.028700
     95 H45         24.9090   -11.8540    35.8420 h1         1 Y9M       0.028700
     96 H46         25.1120   -10.6520    34.5410 h1         1 Y9M       0.028700
     97 H47         22.5840   -13.9780    37.9760 h1         1 Y9M       0.044033
     98 H48         21.8890   -15.0440    36.7310 h1         1 Y9M       0.044033
     99 H49         23.1750   -13.8740    36.3000 h1         1 Y9M       0.044033
    100 H50         21.6090   -11.8600    38.3300 h1         1 Y9M       0.063700
    101 H51         20.2120   -11.3430    37.4000 h1         1 Y9M       0.063700
    102 H52         21.1600   -12.9270    40.3940 ha         1 Y9M       0.123000
    103 H53         19.6530   -14.2150    41.8890 ha         1 Y9M       0.112000
    104 H54         17.4710   -15.0690    41.0410 ha         1 Y9M       0.125000
    105 H55         16.7880   -14.6080    38.6840 ha         1 Y9M       0.112000
    106 H56         18.2830   -13.3080    37.1860 ha         1 Y9M       0.123000
    107 C28         23.4470   -12.6050    33.6970 c3         1 Y9M       0.160600
@<TRIPOS>BOND
     1     1    17 1   
     2     1    18 1   
     3     1    51 1   
     4     2    14 1   
     5     2    33 1   
     6     2    52 1   
     7     3     4 1   
     8     3    21 1   
     9     3    22 2   
    10     4     5 1   
    11     4    23 1   
    12     4    53 1   
    13     5     6 1   
    14     5    54 1   
    15     5    55 1   
    16     6     7 1   
    17     6     8 1   
    18     6    24 1   
    19     7    56 1   
    20     7    57 1   
    21     7    58 1   
    22     8    59 1   
    23     8    60 1   
    24     8    61 1   
    25     9    25 1   
    26     9    62 1   
    27     9    63 1   
    28     9    64 1   
    29    10    28 1   
    30    10    65 1   
    31    10    66 1   
    32    10    67 1   
    33    11    29 ar  
    34    11    30 ar  
    35    11    68 1   
    36    12    13 ar  
    37    12    31 ar  
    38    12    69 1   
    39    13    29 ar  
    40    13    70 1   
    41    14    17 1   
    42    14    32 2   
    43    15    33 1   
    44    15    71 1   
    45    15    72 1   
    46    15    73 1   
    47    16    36 1   
    48    16    37 1   
    49    16    40 1   
    50    16    74 1   
    51    17    28 1   
    52    17    77 1   
    53    18    19 2   
    54    18    20 1   
    55    20    21 1   
    56    20    25 1   
    57    20    78 1   
    58    21    79 1   
    59    24    80 1   
    60    24    81 1   
    61    24    82 1   
    62    25    26 1   
    63    25    27 1   
    64    26    83 1   
    65    26    84 1   
    66    26    85 1   
    67    27    86 1   
    68    28    29 1   
    69    28    87 1   
    70    30    31 ar  
    71    30    88 1   
    72    31    89 1   
    73    33    34 1   
    74    33    90 1   
    75    34    35 2   
    76    34    36 1   
    77    36    91 1   
    78    37    92 1   
    79    37    93 1   
    80    37   107 1   
    81    38    39 1   
    82    38   107 1   
    83    39    94 1   
    84    39    95 1   
    85    39    96 1   
    86    40    41 2   
    87    40    42 1   
    88    42    43 1   
    89    42    44 1   
    90    43    97 1   
    91    43    98 1   
    92    43    99 1   
    93    44    45 1   
    94    44   100 1   
    95    44   101 1   
    96    45    46 ar  
    97    45    50 ar  
    98    46    47 ar  
    99    46   102 1   
   100    47    48 ar  
   101    47   103 1   
   102    48    49 ar  
   103    48   104 1   
   104    49    50 ar  
   105    49   105 1   
   106    50   106 1   
   107    75   107 1   
   108    76   107 1   
@<TRIPOS>SUBSTRUCTURE
     1 Y9M         1 TEMP              0 ****  ****    0 ROOT
