@<TRIPOS>MOLECULE
Y9N
   92    96     1     0     0
SMALL
No Charge or Current Charge


@<TRIPOS>ATOM
      1 O22         15.2550    20.2470    16.4450 o          1 Y9N      -0.594100
      2 C21         14.4890    20.8010    17.2200 c          1 Y9N       0.611700
      3 N20         14.5730    22.1520    17.4740 ns         1 Y9N      -0.499900
      4 C19         15.4940    23.0860    16.8090 c3         1 Y9N       0.123700
      5 C32         14.7420    23.8750    15.7020 c3         1 Y9N      -0.050100
      6 C38         14.1260    22.9600    14.6500 ca         1 Y9N      -0.028300
      7 C33         12.7660    22.5970    14.7230 ca         1 Y9N      -0.156000
      8 C34         12.2150    21.7310    13.7660 ca         1 Y9N       0.189000
      9 C35         13.0070    21.2210    12.7280 ca         1 Y9N      -0.191000
     10 C36         14.3590    21.5830    12.6530 ca         1 Y9N       0.189000
     11 C37         14.9190    22.4470    13.6060 ca         1 Y9N      -0.156000
     12 C17         16.2200    23.9720    17.8680 c3         1 Y9N       0.155300
     13 O18         15.2860    24.8940    18.4720 oh         1 Y9N      -0.670000
     14 C16         17.4520    24.7430    17.2980 c3         1 Y9N       0.180800
     15 N11         18.5400    23.8850    16.7370 n3         1 Y9N      -0.737500
     16 C12         19.6370    23.5880    17.7020 c3         1 Y9N       0.200800
     17 C13         19.2680    22.7390    18.9480 c3         1 Y9N      -0.061700
     18 C14         18.6990    21.3490    18.5660 c3         1 Y9N      -0.091100
     19 C15         20.4850    22.5870    19.8900 c3         1 Y9N      -0.091100
     20 S8          19.1140    24.4050    15.2100 sy         1 Y9N       1.197600
     21 C5          19.8440    26.0060    15.5860 ca         1 Y9N      -0.361500
     22 C6          21.1910    26.0890    15.9870 ca         1 Y9N       0.022500
     23 C7          21.7610    27.3390    16.2850 ca         1 Y9N      -0.193000
     24 C2          20.9870    28.5130    16.1770 ca         1 Y9N       0.194100
     25 O39         21.4930    29.7660    16.4560 os         1 Y9N      -0.342100
     26 C3          19.6490    28.4250    15.7680 ca         1 Y9N      -0.193000
     27 C4          19.0730    27.1800    15.4690 ca         1 Y9N       0.022500
     28 O9          17.9290    24.5830    14.3650 o          1 Y9N      -0.544500
     29 O10         20.1680    23.4630    14.8190 o          1 Y9N      -0.544500
     30 C51         13.3970    20.0450    17.9490 ca         1 Y9N      -0.144600
     31 C56         13.2470    18.6570    17.7240 ca         1 Y9N      -0.074000
     32 C55         12.2370    17.9110    18.3580 ca         1 Y9N       0.283000
     33 C54         11.3650    18.5560    19.2750 ca         1 Y9N      -0.032300
     34 C57         10.2950    17.8050    20.0670 c3         1 Y9N      -0.049800
     35 C53         11.5090    19.9380    19.5000 ca         1 Y9N      -0.117000
     36 C52         12.5060    20.6780    18.8450 ca         1 Y9N      -0.091000
     37 N60         12.1560    16.5390    18.0680 nu         1 Y9N      -0.945900
     38 C61         11.1270    15.7380    17.5940 ca         1 Y9N       0.384900
     39 N62          9.9740    16.3320    17.2390 nb         1 Y9N      -0.220000
     40 C63          9.0070    15.5230    16.7710 ca         1 Y9N       0.146900
     41 C64          9.2020    14.1370    16.6630 ca         1 Y9N      -0.270000
     42 C65         10.4520    13.5990    17.0610 cp         1 Y9N       0.226500
     43 N66         11.4120    14.4280    17.5190 nb         1 Y9N      -0.249000
     44 C71         10.7770    12.1360    16.9910 cp         1 Y9N      -0.211500
     45 C72         12.1210    11.6780    17.0740 ca         1 Y9N       0.379900
     46 N73         12.4830    10.3740    17.0170 nb         1 Y9N      -0.670000
     47 C74         11.5050     9.4530    16.8780 ca         1 Y9N       0.346900
     48 C75         10.1480     9.7930    16.7910 ca         1 Y9N      -0.173000
     49 C76          9.7730    11.1440    16.8480 ca         1 Y9N      -0.051000
     50 F61         10.9130    21.3830    13.8470 f          1 Y9N      -0.180000
     51 F62         15.1280    21.0940    11.6560 f          1 Y9N      -0.180000
     52 C40         22.8530    29.9670    16.8830 c3         1 Y9N       0.146900
     53 H1          13.9180    22.5370    18.1410 hn         1 Y9N       0.316500
     54 H2          16.2760    22.4970    16.3090 h1         1 Y9N       0.103700
     55 H3          15.4260    24.5770    15.2150 hc         1 Y9N       0.068200
     56 H4          13.9610    24.4920    16.1630 hc         1 Y9N       0.068200
     57 H5          12.1380    22.9760    15.5240 ha         1 Y9N       0.146500
     58 H6          12.5770    20.5510    11.9890 ha         1 Y9N       0.146000
     59 H7          15.9710    22.7110    13.5360 ha         1 Y9N       0.146500
     60 H8          16.5810    23.2880    18.6430 h1         1 Y9N       0.056700
     61 H9          15.6970    25.2310    19.2990 ho         1 Y9N       0.443000
     62 H10         17.8610    25.3850    18.0900 h1         1 Y9N       0.054200
     63 H11         17.0620    25.4330    16.5410 h1         1 Y9N       0.054200
     64 H12         20.4440    23.0400    17.1990 h1         1 Y9N       0.052700
     65 H13         20.0790    24.5320    18.0520 h1         1 Y9N       0.052700
     66 H14         18.5100    23.2800    19.5240 hc         1 Y9N       0.039700
     67 H15         18.3970    20.7950    19.4620 hc         1 Y9N       0.041033
     68 H16         17.8220    21.4410    17.9160 hc         1 Y9N       0.041033
     69 H17         19.4520    20.7550    18.0340 hc         1 Y9N       0.041033
     70 H18         20.2100    22.0290    20.7930 hc         1 Y9N       0.041033
     71 H19         21.3020    22.0520    19.3910 hc         1 Y9N       0.041033
     72 H20         20.8590    23.5700    20.2020 hc         1 Y9N       0.041033
     73 H21         21.8020    25.1910    16.0730 ha         1 Y9N       0.133500
     74 H22         22.8010    27.3740    16.5950 ha         1 Y9N       0.130000
     75 H23         19.0530    29.3300    15.6810 ha         1 Y9N       0.130000
     76 H24         18.0330    27.1360    15.1490 ha         1 Y9N       0.133500
     77 H25         13.9120    18.1500    17.0320 ha         1 Y9N       0.139000
     78 H26         10.5800    16.7640    20.2600 hc         1 Y9N       0.050700
     79 H27         10.1230    18.2730    21.0430 hc         1 Y9N       0.050700
     80 H28          9.3380    17.8030    19.5320 hc         1 Y9N       0.050700
     81 H29         10.8450    20.4460    20.1960 ha         1 Y9N       0.116000
     82 H30         12.5730    21.7430    19.0540 ha         1 Y9N       0.114000
     83 H31         13.0610    16.0700    18.0190 hn         1 Y9N       0.512000
     84 H32          8.0690    15.9910    16.4770 h4         1 Y9N       0.023100
     85 H33          8.4080    13.5120    16.2700 ha         1 Y9N       0.133000
     86 H34         12.9450    12.3830    17.1810 h4         1 Y9N       0.040100
     87 H35         11.8210     8.4110    16.8360 h4         1 Y9N       0.021100
     88 H36          9.3990     9.0130    16.6850 ha         1 Y9N       0.125000
     89 H37          8.7190    11.4040    16.7950 ha         1 Y9N       0.120000
     90 H38         23.0450    31.0340    17.0510 h1         1 Y9N       0.048700
     91 H39         23.0500    29.4350    17.8230 h1         1 Y9N       0.048700
     92 H40         23.5580    29.6110    16.1220 h1         1 Y9N       0.048700
@<TRIPOS>BOND
     1     1     2 2   
     2     2     3 1   
     3     2    30 1   
     4     3     4 1   
     5     3    53 1   
     6     4     5 1   
     7     4    12 1   
     8     4    54 1   
     9     5     6 1   
    10     5    55 1   
    11     5    56 1   
    12     6     7 ar  
    13     6    11 ar  
    14     7     8 ar  
    15     7    57 1   
    16     8     9 ar  
    17     8    50 1   
    18     9    10 ar  
    19     9    58 1   
    20    10    11 ar  
    21    10    51 1   
    22    11    59 1   
    23    12    13 1   
    24    12    14 1   
    25    12    60 1   
    26    13    61 1   
    27    14    15 1   
    28    14    62 1   
    29    14    63 1   
    30    15    16 1   
    31    15    20 1   
    32    16    17 1   
    33    16    64 1   
    34    16    65 1   
    35    17    18 1   
    36    17    19 1   
    37    17    66 1   
    38    18    67 1   
    39    18    68 1   
    40    18    69 1   
    41    19    70 1   
    42    19    71 1   
    43    19    72 1   
    44    20    21 1   
    45    20    28 2   
    46    20    29 2   
    47    21    22 ar  
    48    21    27 ar  
    49    22    23 ar  
    50    22    73 1   
    51    23    24 ar  
    52    23    74 1   
    53    24    25 1   
    54    24    26 ar  
    55    25    52 1   
    56    26    27 ar  
    57    26    75 1   
    58    27    76 1   
    59    30    31 ar  
    60    30    36 ar  
    61    31    32 ar  
    62    31    77 1   
    63    32    33 ar  
    64    32    37 1   
    65    33    34 1   
    66    33    35 ar  
    67    34    78 1   
    68    34    79 1   
    69    34    80 1   
    70    35    36 ar  
    71    35    81 1   
    72    36    82 1   
    73    37    38 1   
    74    37    83 1   
    75    38    39 ar  
    76    38    43 ar  
    77    39    40 ar  
    78    40    41 ar  
    79    40    84 1   
    80    41    42 ar  
    81    41    85 1   
    82    42    43 ar  
    83    42    44 1   
    84    44    45 ar  
    85    44    49 ar  
    86    45    46 ar  
    87    45    86 1   
    88    46    47 ar  
    89    47    48 ar  
    90    47    87 1   
    91    48    49 ar  
    92    48    88 1   
    93    49    89 1   
    94    52    90 1   
    95    52    91 1   
    96    52    92 1   
@<TRIPOS>SUBSTRUCTURE
     1 Y9N         1 TEMP              0 ****  ****    0 ROOT
