@<TRIPOS>MOLECULE
Y9N
   92    96     1     0     0
SMALL
abcg2


@<TRIPOS>ATOM
      1 O22         16.1930    19.7050    17.6120 o          1 Y9N      -0.594100
      2 C21         15.2520    20.2830    18.1590 c          1 Y9N       0.611700
      3 N20         15.1050    21.6250    18.1620 ns         1 Y9N      -0.499900
      4 C19         15.8900    22.5320    17.3400 c3         1 Y9N       0.123700
      5 C32         15.1030    22.8940    16.0600 c3         1 Y9N      -0.050100
      6 C38         14.7880    21.6640    15.2520 ca         1 Y9N      -0.028300
      7 C33         13.6080    20.9530    15.4810 ca         1 Y9N      -0.156000
      8 C34         13.3990    19.7640    14.8090 ca         1 Y9N       0.189000
      9 C35         14.2960    19.2430    13.8950 ca         1 Y9N      -0.191000
     10 C36         15.4440    19.9870    13.6780 ca         1 Y9N       0.189000
     11 C37         15.7140    21.1740    14.3290 ca         1 Y9N      -0.156000
     12 C17         16.2740    23.7410    18.1910 c3         1 Y9N       0.155300
     13 O18         15.0790    24.4690    18.4810 oh         1 Y9N      -0.670000
     14 C16         17.2940    24.6830    17.5450 c3         1 Y9N       0.180800
     15 N11         18.6190    24.0690    17.3580 n3         1 Y9N      -0.737500
     16 C12         19.6130    24.3520    18.4120 c3         1 Y9N       0.200800
     17 C13         19.3630    23.5890    19.7150 c3         1 Y9N      -0.061700
     18 C14         19.3620    22.0780    19.4950 c3         1 Y9N      -0.091100
     19 C15         20.4270    24.0030    20.7330 c3         1 Y9N      -0.091100
     20 S8          19.1880    24.0150    15.8100 sy         1 Y9N       1.197600
     21 C5          19.5390    25.6770    15.3370 ca         1 Y9N      -0.361500
     22 C6          20.7580    26.2500    15.6850 ca         1 Y9N       0.022500
     23 C7          21.0140    27.5820    15.3900 ca         1 Y9N      -0.193000
     24 C2          20.0380    28.3470    14.7450 ca         1 Y9N       0.194100
     25 O39         20.1870    29.6490    14.4180 os         1 Y9N      -0.342100
     26 C3          18.8130    27.7640    14.3930 ca         1 Y9N      -0.193000
     27 C4          18.5640    26.4380    14.6880 ca         1 Y9N       0.022500
     28 O9          18.1060    23.5360    14.9820 o          1 Y9N      -0.544500
     29 O10         20.4270    23.2740    15.8380 o          1 Y9N      -0.544500
     30 C51         14.1560    19.5290    18.8430 ca         1 Y9N      -0.144600
     31 C56         13.7720    18.3050    18.3050 ca         1 Y9N      -0.074000
     32 C55         12.7060    17.5930    18.8430 ca         1 Y9N       0.283000
     33 C54         12.0250    18.0700    19.9740 ca         1 Y9N      -0.032300
     34 C57         10.9090    17.2950    20.6080 c3         1 Y9N      -0.049800
     35 C53         12.4320    19.2930    20.5080 ca         1 Y9N      -0.117000
     36 C52         13.4720    20.0250    19.9520 ca         1 Y9N      -0.091000
     37 N60         12.3520    16.3530    18.2510 nu         1 Y9N      -0.945900
     38 C61         11.2060    16.1250    17.5450 ca         1 Y9N       0.384900
     39 N62         10.2930    17.1050    17.4680 nb         1 Y9N      -0.220000
     40 C63          9.1950    16.8200    16.7700 ca         1 Y9N       0.146900
     41 C64          8.9860    15.6020    16.1470 ca         1 Y9N      -0.270000
     42 C65          9.9960    14.6460    16.2840 cp         1 Y9N       0.226500
     43 N66         11.1020    14.9110    16.9830 nb         1 Y9N      -0.249000
     44 C71          9.8970    13.3090    15.6590 cp         1 Y9N      -0.211500
     45 C72         11.0500    12.5620    15.3940 ca         1 Y9N       0.379900
     46 N73         11.0380    11.3550    14.8300 nb         1 Y9N      -0.670000
     47 C74          9.8510    10.8310    14.5040 ca         1 Y9N       0.346900
     48 C75          8.6470    11.4880    14.7230 ca         1 Y9N      -0.173000
     49 C76          8.6700    12.7440    15.3080 ca         1 Y9N      -0.051000
     50 F61         12.2650    19.0650    15.0620 f          1 Y9N      -0.180000
     51 F62         16.3490    19.5120    12.7840 f          1 Y9N      -0.180000
     52 C40         21.4190    30.3010    14.7450 c3         1 Y9N       0.146900
     53 H1          14.2470    22.0020    18.5340 hn         1 Y9N       0.316500
     54 H2          16.8030    22.0100    17.0640 h1         1 Y9N       0.103700
     55 H3          15.6980    23.5830    15.4650 hc         1 Y9N       0.068200
     56 H4          14.1800    23.3980    16.3480 hc         1 Y9N       0.068200
     57 H5          12.8720    21.3040    16.1910 ha         1 Y9N       0.146500
     58 H6          14.1120    18.3120    13.3790 ha         1 Y9N       0.146000
     59 H7          16.6400    21.6990    14.1410 ha         1 Y9N       0.146500
     60 H8          16.6900    23.3460    19.1190 h1         1 Y9N       0.056700
     61 H9          15.2470    25.0460    19.2360 ho         1 Y9N       0.443000
     62 H10         17.4070    25.5580    18.1910 h1         1 Y9N       0.054200
     63 H11         16.9030    25.0360    16.5940 h1         1 Y9N       0.054200
     64 H12         20.5920    24.0650    18.0330 h1         1 Y9N       0.052700
     65 H13         19.6270    25.4290    18.6090 h1         1 Y9N       0.052700
     66 H14         18.3910    23.8910    20.1150 hc         1 Y9N       0.039700
     67 H15         19.1720    21.5540    20.4340 hc         1 Y9N       0.041033
     68 H16         18.6000    21.7740    18.7770 hc         1 Y9N       0.041033
     69 H17         20.3320    21.7490    19.1130 hc         1 Y9N       0.041033
     70 H18         20.2570    23.5060    21.6890 hc         1 Y9N       0.041033
     71 H19         21.4250    23.7260    20.3820 hc         1 Y9N       0.041033
     72 H20         20.4150    25.0820    20.9040 hc         1 Y9N       0.041033
     73 H21         21.5170    25.6590    16.1780 ha         1 Y9N       0.133500
     74 H22         21.9680    28.0080    15.6610 ha         1 Y9N       0.130000
     75 H23         18.0720    28.3670    13.8860 ha         1 Y9N       0.130000
     76 H24         17.6220    25.9900    14.4070 ha         1 Y9N       0.133500
     77 H25         14.2840    17.9180    17.4340 ha         1 Y9N       0.139000
     78 H26         11.1430    16.2300    20.6440 hc         1 Y9N       0.050700
     79 H27         10.7200    17.6510    21.6200 hc         1 Y9N       0.050700
     80 H28          9.9890    17.4000    20.0280 hc         1 Y9N       0.050700
     81 H29         11.9280    19.6700    21.3890 ha         1 Y9N       0.116000
     82 H30         13.7610    20.9660    20.4020 ha         1 Y9N       0.114000
     83 H31         13.0950    15.6940    18.0720 hn         1 Y9N       0.512000
     84 H32          8.4540    17.6090    16.6980 h4         1 Y9N       0.023100
     85 H33          8.0920    15.4210    15.5700 ha         1 Y9N       0.133000
     86 H34         12.0180    12.9740    15.6470 h4         1 Y9N       0.040100
     87 H35          9.8650     9.8450    14.0520 h4         1 Y9N       0.021100
     88 H36          7.7120    11.0190    14.4460 ha         1 Y9N       0.125000
     89 H37          7.7450    13.2680    15.5030 ha         1 Y9N       0.120000
     90 H38         21.3110    31.3250    14.3980 h1         1 Y9N       0.048700
     91 H39         21.5900    30.2920    15.8230 h1         1 Y9N       0.048700
     92 H40         22.2580    29.8240    14.2350 h1         1 Y9N       0.048700
@<TRIPOS>BOND
     1     1     2 2   
     2     2     3 1   
     3     2    30 1   
     4     3     4 1   
     5     3    53 1   
     6     4     5 1   
     7     4    12 1   
     8     4    54 1   
     9     5     6 1   
    10     5    55 1   
    11     5    56 1   
    12     6     7 ar  
    13     6    11 ar  
    14     7     8 ar  
    15     7    57 1   
    16     8     9 ar  
    17     8    50 1   
    18     9    10 ar  
    19     9    58 1   
    20    10    11 ar  
    21    10    51 1   
    22    11    59 1   
    23    12    13 1   
    24    12    14 1   
    25    12    60 1   
    26    13    61 1   
    27    14    15 1   
    28    14    62 1   
    29    14    63 1   
    30    15    16 1   
    31    15    20 1   
    32    16    17 1   
    33    16    64 1   
    34    16    65 1   
    35    17    18 1   
    36    17    19 1   
    37    17    66 1   
    38    18    67 1   
    39    18    68 1   
    40    18    69 1   
    41    19    70 1   
    42    19    71 1   
    43    19    72 1   
    44    20    21 1   
    45    20    28 2   
    46    20    29 2   
    47    21    22 ar  
    48    21    27 ar  
    49    22    23 ar  
    50    22    73 1   
    51    23    24 ar  
    52    23    74 1   
    53    24    25 1   
    54    24    26 ar  
    55    25    52 1   
    56    26    27 ar  
    57    26    75 1   
    58    27    76 1   
    59    30    31 ar  
    60    30    36 ar  
    61    31    32 ar  
    62    31    77 1   
    63    32    33 ar  
    64    32    37 1   
    65    33    34 1   
    66    33    35 ar  
    67    34    78 1   
    68    34    79 1   
    69    34    80 1   
    70    35    36 ar  
    71    35    81 1   
    72    36    82 1   
    73    37    38 1   
    74    37    83 1   
    75    38    39 ar  
    76    38    43 ar  
    77    39    40 ar  
    78    40    41 ar  
    79    40    84 1   
    80    41    42 ar  
    81    41    85 1   
    82    42    43 ar  
    83    42    44 1   
    84    44    45 ar  
    85    44    49 ar  
    86    45    46 ar  
    87    45    86 1   
    88    46    47 ar  
    89    47    48 ar  
    90    47    87 1   
    91    48    49 ar  
    92    48    88 1   
    93    49    89 1   
    94    52    90 1   
    95    52    91 1   
    96    52    92 1   
@<TRIPOS>SUBSTRUCTURE
     1 Y9N         1 TEMP              0 ****  ****    0 ROOT
