@<TRIPOS>MOLECULE
Y9P
   28    29     1     0     0
SMALL
abcg2


@<TRIPOS>ATOM
      1 C01        -19.1510    -8.4000    10.6430 cc         1 Y9P       0.303500
      2 C02        -18.3740    -7.5790     9.7570 cc         1 Y9P       0.151400
      3 C03        -19.1070    -6.7660     8.9080 cd         1 Y9P      -0.146200
      4 C04        -20.5340    -6.7510     8.9020 c          1 Y9P       0.566200
      5 C06        -16.2070    -8.3660    10.7040 c5         1 Y9P       0.199500
      6 C07        -14.7290    -8.3790    10.2140 c5         1 Y9P       0.127800
      7 C08        -14.7700    -7.0120    12.1000 c5         1 Y9P       0.134800
      8 C09        -16.1310    -7.7180    12.1070 c5         1 Y9P      -0.142400
      9 N01        -21.1180    -7.6220     9.8270 n          1 Y9P      -0.140800
     10 N02        -20.4480    -8.4100    10.6620 nd         1 Y9P      -0.391300
     11 N03        -17.0290    -7.6220     9.7570 nu         1 Y9P      -0.811200
     12 N04        -13.8870    -7.8860    11.3120 n7         1 Y9P      -0.825400
     13 O01        -21.2540    -6.0570     8.1740 o          1 Y9P      -0.539000
     14 CL01       -18.2930    -5.7160     7.7930 cl         1 Y9P      -0.165000
     15 H1         -18.6690    -9.0570    11.3510 h4         1 Y9P       0.044800
     16 H2         -22.8310    -8.3900    10.6790 h1         1 Y9P       0.058700
     17 H3         -22.9780    -6.6970    10.1330 h1         1 Y9P       0.058700
     18 H4         -22.9840    -8.0090     8.9430 h1         1 Y9P       0.058700
     19 H5         -16.5930    -9.3820    10.7640 h1         1 Y9P       0.066700
     20 H7         -14.6310    -7.7080     9.3550 h1         1 Y9P       0.064700
     21 H8         -14.3590    -6.8470    13.0950 h1         1 Y9P       0.063700
     22 H9         -14.8460    -6.0430    11.5980 h1         1 Y9P       0.063700
     23 H10        -16.9740    -7.0530    12.2940 hc         1 Y9P       0.061700
     24 H11        -16.1360    -8.4990    12.8700 hc         1 Y9P       0.061700
     25 H12        -16.5580    -6.9540     9.1650 hn         1 Y9P       0.507000
     26 H13        -13.6180    -8.6740    11.8930 hn         1 Y9P       0.402000
     27 C05        -22.5750    -7.6820     9.8980 c3         1 Y9P       0.101300
     28 H6         -14.4070    -9.3690     9.8990 h1         1 Y9P       0.064700
@<TRIPOS>BOND
     1     1     2 1   
     2     1    10 2   
     3     1    15 1   
     4     2     3 2   
     5     2    11 1   
     6     3     4 1   
     7     3    14 1   
     8     4     9 1   
     9     4    13 2   
    10     5     6 1   
    11     5     8 1   
    12     5    11 1   
    13     5    19 1   
    14     6    12 1   
    15     6    20 1   
    16     6    28 1   
    17     7     8 1   
    18     7    12 1   
    19     7    21 1   
    20     7    22 1   
    21     8    23 1   
    22     8    24 1   
    23     9    10 1   
    24     9    27 1   
    25    11    25 1   
    26    12    26 1   
    27    16    27 1   
    28    17    27 1   
    29    18    27 1   
@<TRIPOS>SUBSTRUCTURE
     1 Y9P         1 TEMP              0 ****  ****    0 ROOT
