@<TRIPOS>MOLECULE
Y9P
   28    29     1     0     0
SMALL
No Charge or Current Charge


@<TRIPOS>ATOM
      1 C01        -19.1910    -8.4520    10.6600 cc         1 Y9P       0.303500
      2 C02        -18.3770    -7.5580     9.8520 cc         1 Y9P       0.151400
      3 C03        -19.0290    -6.6800     9.0160 cd         1 Y9P      -0.146200
      4 C04        -20.5110    -6.6650     8.9510 c          1 Y9P       0.566200
      5 C06        -16.1930    -8.5370    10.7690 c5         1 Y9P       0.199500
      6 C07        -14.7240    -8.4960    10.2020 c5         1 Y9P       0.127800
      7 C08        -14.8490    -6.8810    11.8990 c5         1 Y9P       0.134800
      8 C09        -16.0640    -7.8110    12.1390 c5         1 Y9P      -0.142400
      9 N01        -21.1340    -7.6120     9.8100 n          1 Y9P      -0.140800
     10 N02        -20.5230    -8.5210    10.6790 nd         1 Y9P      -0.391300
     11 N03        -16.9850    -7.5880     9.9320 nu         1 Y9P      -0.811200
     12 N04        -13.8930    -7.7790    11.2170 n7         1 Y9P      -0.825400
     13 O01        -21.1490    -5.9080     8.2260 o          1 Y9P      -0.539000
     14 Cl01       -18.1780    -5.5440     7.9930 cl         1 Y9P      -0.165000
     15 H1         -18.7410    -9.1590    11.3430 h4         1 Y9P       0.044800
     16 H2         -22.9640    -8.4450    10.5200 h1         1 Y9P       0.058700
     17 H3         -23.0220    -6.7060    10.1250 h1         1 Y9P       0.058700
     18 H4         -22.9770    -7.9210     8.8140 h1         1 Y9P       0.058700
     19 H5         -16.6110    -9.5520    10.8300 h1         1 Y9P       0.066700
     20 H7         -14.6790    -7.9800     9.2320 h1         1 Y9P       0.064700
     21 H8         -14.4410    -6.4790    12.8380 h1         1 Y9P       0.063700
     22 H9         -15.1170    -6.0280    11.2580 h1         1 Y9P       0.063700
     23 H10        -16.9640    -7.2650    12.4420 hc         1 Y9P       0.061700
     24 H11        -15.8470    -8.5310    12.9370 hc         1 Y9P       0.061700
     25 H12        -16.5100    -6.8930     9.3500 hn         1 Y9P       0.507000
     26 H13        -13.5680    -8.4670    11.9090 hn         1 Y9P       0.402000
     27 C05        -22.6120    -7.6770     9.8190 c3         1 Y9P       0.101300
     28 H6         -14.3380    -9.5120    10.0340 h1         1 Y9P       0.064700
@<TRIPOS>BOND
     1     1     2 1   
     2     1    10 2   
     3     1    15 1   
     4     2     3 2   
     5     2    11 1   
     6     3     4 1   
     7     3    14 1   
     8     4     9 1   
     9     4    13 2   
    10     5     6 1   
    11     5     8 1   
    12     5    11 1   
    13     5    19 1   
    14     6    12 1   
    15     6    20 1   
    16     6    28 1   
    17     7     8 1   
    18     7    12 1   
    19     7    21 1   
    20     7    22 1   
    21     8    23 1   
    22     8    24 1   
    23     9    10 1   
    24     9    27 1   
    25    11    25 1   
    26    12    26 1   
    27    16    27 1   
    28    17    27 1   
    29    18    27 1   
@<TRIPOS>SUBSTRUCTURE
     1 Y9P         1 TEMP              0 ****  ****    0 ROOT
