@<TRIPOS>MOLECULE
Y9R
   90    94     1     0     0
SMALL
No Charge or Current Charge


@<TRIPOS>ATOM
      1 C5          19.9360    25.5560    15.6570 ca         1 Y9R      -0.381500
      2 C6          21.0510    26.2270    16.1970 ca         1 Y9R       0.033500
      3 N1          20.6600    29.5410    14.6560 nv         1 Y9R      -1.094000
      4 C2          20.4240    28.2370    14.9830 ca         1 Y9R       0.364000
      5 C4          19.0730    26.2280    14.7690 ca         1 Y9R       0.033500
      6 O10         20.8940    23.1870    16.4500 o          1 Y9R      -0.546000
      7 S8          19.6290    23.8370    16.0890 sy         1 Y9R       1.197600
      8 O9          18.7380    23.2260    15.0990 o          1 Y9R      -0.546000
      9 C3          19.3210    27.5700    14.4390 ca         1 Y9R      -0.211500
     10 C7          21.2870    27.5700    15.8580 ca         1 Y9R      -0.211500
     11 N11         18.7230    23.9650    17.5330 n3         1 Y9R      -0.736500
     12 C12         19.4950    24.5120    18.6810 c3         1 Y9R       0.203800
     13 C13         18.8960    24.2370    20.0870 c3         1 Y9R      -0.061700
     14 C15         19.6520    25.0310    21.1770 c3         1 Y9R      -0.091600
     15 C14         18.8810    22.7270    20.4220 c3         1 Y9R      -0.091600
     16 C16         17.3800    24.5940    17.3670 c3         1 Y9R       0.182800
     17 C17         16.1850    23.7140    17.8500 c3         1 Y9R       0.153300
     18 O18         15.0150    24.5390    18.0570 oh         1 Y9R      -0.666000
     19 C19         15.8510    22.5260    16.8890 c3         1 Y9R       0.124700
     20 C32         15.3300    22.9540    15.4850 c3         1 Y9R      -0.043100
     21 C38         14.8260    21.7750    14.6550 ca         1 Y9R      -0.080300
     22 C37         15.7290    20.8010    14.1860 ca         1 Y9R      -0.105500
     23 C36         15.2630    19.6960    13.4530 ca         1 Y9R      -0.115500
     24 C35         13.8910    19.5580    13.1830 ca         1 Y9R      -0.112000
     25 C34         12.9850    20.5270    13.6440 ca         1 Y9R      -0.115500
     26 C33         13.4510    21.6330    14.3760 ca         1 Y9R      -0.105500
     27 N20         14.8840    21.5930    17.4850 ns         1 Y9R      -0.494900
     28 C21         15.1750    20.6100    18.4010 c          1 Y9R       0.608700
     29 O22         16.2770    20.5190    18.9210 o          1 Y9R      -0.605100
     30 C51         14.0600    19.6290    18.6870 ca         1 Y9R      -0.130600
     31 C56         12.9470    19.5000    17.8230 ca         1 Y9R      -0.095000
     32 C55         11.9140    18.5780    18.0850 ca         1 Y9R       0.301000
     33 C54         12.0050    17.7420    19.2230 ca         1 Y9R      -0.092300
     34 C57         10.9210    16.7130    19.5460 c3         1 Y9R      -0.049800
     35 C53         13.1160    17.8580    20.0810 ca         1 Y9R      -0.102000
     36 C52         14.1330    18.7890    19.8160 ca         1 Y9R      -0.073000
     37 N60         10.8330    18.4440    17.2000 nu         1 Y9R      -0.940900
     38 C61         10.2090    19.2920    16.2930 ca         1 Y9R       0.389900
     39 N66          9.3820    18.6810    15.4290 nb         1 Y9R      -0.252000
     40 C65          8.7460    19.4420    14.5160 cp         1 Y9R       0.226500
     41 C64          8.9510    20.8440    14.5170 ca         1 Y9R      -0.270000
     42 C63          9.8230    21.3900    15.4700 ca         1 Y9R       0.145900
     43 N62         10.4590    20.6120    16.3640 nb         1 Y9R      -0.219000
     44 C71          7.8410    18.7450    13.5440 cp         1 Y9R      -0.213500
     45 C76          7.3950    19.3640    12.3480 ca         1 Y9R      -0.050000
     46 C75          6.5510    18.6530    11.4820 ca         1 Y9R      -0.172000
     47 C74          6.1680    17.3460    11.8170 ca         1 Y9R       0.348900
     48 N73          6.5790    16.7300    12.9460 nb         1 Y9R      -0.670000
     49 C72          7.3950    17.4160    13.7810 ca         1 Y9R       0.379900
     50 H1          21.7330    25.7180    16.8770 ha         1 Y9R       0.131000
     51 H2          21.5560    29.9590    14.9000 hn         1 Y9R       0.471000
     52 H3          20.1490    29.9630    13.8830 hn         1 Y9R       0.471000
     53 H4          18.2140    25.7200    14.3330 ha         1 Y9R       0.131000
     54 H5          18.6520    28.0870    13.7570 ha         1 Y9R       0.117000
     55 H6          22.1450    28.0860    16.2800 ha         1 Y9R       0.117000
     56 H7          20.5120    24.0980    18.6940 h1         1 Y9R       0.049200
     57 H8          19.6060    25.5980    18.5580 h1         1 Y9R       0.049200
     58 H9          17.8620    24.5970    20.1030 hc         1 Y9R       0.040700
     59 H10         19.2000    24.8630    22.1630 hc         1 Y9R       0.041033
     60 H11         20.7040    24.7270    21.2250 hc         1 Y9R       0.041033
     61 H12         19.6140    26.1080    20.9690 hc         1 Y9R       0.041033
     62 H13         18.3810    22.5460    21.3810 hc         1 Y9R       0.041033
     63 H14         18.3500    22.1580    19.6510 hc         1 Y9R       0.041033
     64 H15         19.9020    22.3320    20.4880 hc         1 Y9R       0.041033
     65 H16         17.3510    25.5430    17.9210 h1         1 Y9R       0.052200
     66 H17         17.1920    24.8740    16.3240 h1         1 Y9R       0.052200
     67 H18         16.4770    23.2730    18.8110 h1         1 Y9R       0.060700
     68 H19         15.1390    25.0150    18.9070 ho         1 Y9R       0.440000
     69 H20         16.7840    21.9670    16.7340 h1         1 Y9R       0.096700
     70 H21         16.1230    23.4710    14.9350 hc         1 Y9R       0.065700
     71 H22         14.5260    23.6880    15.6060 hc         1 Y9R       0.065700
     72 H23         16.7920    20.8980    14.3950 ha         1 Y9R       0.119000
     73 H24         15.9650    18.9460    13.0960 ha         1 Y9R       0.110500
     74 H25         13.5300    18.7010    12.6180 ha         1 Y9R       0.111000
     75 H26         11.9230    20.4210    13.4350 ha         1 Y9R       0.110500
     76 H27         12.7400    22.3760    14.7320 ha         1 Y9R       0.119000
     77 H28         13.9370    21.6180    17.1360 hn         1 Y9R       0.323500
     78 H29         12.8990    20.0830    16.9110 ha         1 Y9R       0.140000
     79 H30         10.8800    15.9300    18.7800 hc         1 Y9R       0.045033
     80 H31         11.1020    16.2190    20.5080 hc         1 Y9R       0.045033
     81 H32          9.9330    17.1840    19.6050 hc         1 Y9R       0.045033
     82 H33         13.1970    17.2210    20.9600 ha         1 Y9R       0.116000
     83 H34         14.9820    18.8560    20.4950 ha         1 Y9R       0.133000
     84 H35         10.3720    17.5380    17.2570 hn         1 Y9R       0.513000
     85 H36          8.4450    21.4980    13.8150 ha         1 Y9R       0.135000
     86 H37         10.0160    22.4610    15.5200 h4         1 Y9R       0.024100
     87 H38          7.7030    20.3720    12.0800 ha         1 Y9R       0.121000
     88 H39          6.1970    19.1020    10.5590 ha         1 Y9R       0.126000
     89 H40          5.5130    16.7740    11.1600 h4         1 Y9R       0.022100
     90 H41          7.6940    16.8780    14.6800 h4         1 Y9R       0.038100
@<TRIPOS>BOND
     1     1     2 ar  
     2     1     5 ar  
     3     1     7 1   
     4     2    10 ar  
     5     2    50 1   
     6     3     4 1   
     7     3    51 1   
     8     3    52 1   
     9     4     9 ar  
    10     4    10 ar  
    11     5     9 ar  
    12     5    53 1   
    13     6     7 2   
    14     7     8 2   
    15     7    11 1   
    16     9    54 1   
    17    10    55 1   
    18    11    12 1   
    19    11    16 1   
    20    12    13 1   
    21    12    56 1   
    22    12    57 1   
    23    13    14 1   
    24    13    15 1   
    25    13    58 1   
    26    14    59 1   
    27    14    60 1   
    28    14    61 1   
    29    15    62 1   
    30    15    63 1   
    31    15    64 1   
    32    16    17 1   
    33    16    65 1   
    34    16    66 1   
    35    17    18 1   
    36    17    19 1   
    37    17    67 1   
    38    18    68 1   
    39    19    20 1   
    40    19    27 1   
    41    19    69 1   
    42    20    21 1   
    43    20    70 1   
    44    20    71 1   
    45    21    22 ar  
    46    21    26 ar  
    47    22    23 ar  
    48    22    72 1   
    49    23    24 ar  
    50    23    73 1   
    51    24    25 ar  
    52    24    74 1   
    53    25    26 ar  
    54    25    75 1   
    55    26    76 1   
    56    27    28 1   
    57    27    77 1   
    58    28    29 2   
    59    28    30 1   
    60    30    31 ar  
    61    30    36 ar  
    62    31    32 ar  
    63    31    78 1   
    64    32    33 ar  
    65    32    37 1   
    66    33    34 1   
    67    33    35 ar  
    68    34    79 1   
    69    34    80 1   
    70    34    81 1   
    71    35    36 ar  
    72    35    82 1   
    73    36    83 1   
    74    37    38 1   
    75    37    84 1   
    76    38    39 ar  
    77    38    43 ar  
    78    39    40 ar  
    79    40    41 ar  
    80    40    44 1   
    81    41    42 ar  
    82    41    85 1   
    83    42    43 ar  
    84    42    86 1   
    85    44    45 ar  
    86    44    49 ar  
    87    45    46 ar  
    88    45    87 1   
    89    46    47 ar  
    90    46    88 1   
    91    47    48 ar  
    92    47    89 1   
    93    48    49 ar  
    94    49    90 1   
@<TRIPOS>SUBSTRUCTURE
     1 Y9R         1 TEMP              0 ****  ****    0 ROOT
