@<TRIPOS>MOLECULE
Y9R
   90    94     1     0     0
SMALL
abcg2


@<TRIPOS>ATOM
      1 C5          19.7480    25.2970    15.5200 ca         1 Y9R      -0.381500
      2 C6          21.0200    25.7050    15.9270 ca         1 Y9R       0.033500
      3 N1          21.3210    28.9170    14.1670 nv         1 Y9R      -1.094000
      4 C2          20.8170    27.7130    14.5850 ca         1 Y9R       0.364000
      5 C4          19.0110    26.0980    14.6430 ca         1 Y9R       0.033500
      6 O10         20.0900    22.9540    16.6050 o          1 Y9R      -0.546000
      7 S8          19.0280    23.8430    16.1890 sy         1 Y9R       1.197600
      8 O9          18.0370    23.3520    15.2580 o          1 Y9R      -0.546000
      9 C3          19.5390    27.2870    14.1800 ca         1 Y9R      -0.211500
     10 C7          21.5490    26.8940    15.4650 ca         1 Y9R      -0.211500
     11 N11         18.2200    24.2810    17.5610 n3         1 Y9R      -0.736500
     12 C12         19.0550    24.8120    18.6550 c3         1 Y9R       0.203800
     13 C13         18.5680    24.4060    20.0470 c3         1 Y9R      -0.061700
     14 C15         19.4070    25.1400    21.0950 c3         1 Y9R      -0.091600
     15 C14         18.6290    22.8930    20.2430 c3         1 Y9R      -0.091600
     16 C16         16.9020    24.9150    17.4060 c3         1 Y9R       0.182800
     17 C17         15.7690    24.0460    17.9670 c3         1 Y9R       0.153300
     18 O18         14.5610    24.8070    18.0280 oh         1 Y9R      -0.666000
     19 C19         15.5100    22.7870    17.1420 c3         1 Y9R       0.124700
     20 C32         14.8500    23.0710    15.7820 c3         1 Y9R      -0.043100
     21 C38         14.4750    21.8100    15.0430 ca         1 Y9R      -0.080300
     22 C37         15.4120    20.8030    14.8010 ca         1 Y9R      -0.105500
     23 C36         15.0390    19.6190    14.1770 ca         1 Y9R      -0.115500
     24 C35         13.7190    19.4210    13.7760 ca         1 Y9R      -0.112000
     25 C34         12.7820    20.4220    13.9960 ca         1 Y9R      -0.115500
     26 C33         13.1590    21.6040    14.6280 ca         1 Y9R      -0.105500
     27 N20         14.7100    21.8200    17.8810 ns         1 Y9R      -0.494900
     28 C21         15.2110    20.6470    18.3260 c          1 Y9R       0.608700
     29 O22         16.4210    20.4420    18.4590 o          1 Y9R      -0.605100
     30 C51         14.2070    19.5770    18.6080 ca         1 Y9R      -0.130600
     31 C56         13.1070    19.4250    17.7700 ca         1 Y9R      -0.095000
     32 C55         12.2090    18.3770    17.9570 ca         1 Y9R       0.301000
     33 C54         12.4070    17.4540    18.9970 ca         1 Y9R      -0.092300
     34 C57         11.4550    16.3120    19.2030 c3         1 Y9R      -0.049800
     35 C53         13.5210    17.6210    19.8220 ca         1 Y9R      -0.102000
     36 C52         14.4190    18.6610    19.6370 ca         1 Y9R      -0.073000
     37 N60         11.1340    18.1850    17.0740 nu         1 Y9R      -0.940900
     38 C61         10.4470    19.1330    16.3670 ca         1 Y9R       0.389900
     39 N66          9.7190    18.6630    15.3440 nb         1 Y9R      -0.252000
     40 C65          9.0200    19.5450    14.6250 cp         1 Y9R       0.226500
     41 C64          9.0510    20.9080    14.9340 ca         1 Y9R      -0.270000
     42 C63          9.8280    21.2820    16.0170 ca         1 Y9R       0.145900
     43 N62         10.5270    20.4160    16.7470 nb         1 Y9R      -0.219000
     44 C71          8.2290    19.0140    13.4940 cp         1 Y9R      -0.213500
     45 C76          7.8530    19.8120    12.4120 ca         1 Y9R      -0.050000
     46 C75          7.1210    19.2480    11.3800 ca         1 Y9R      -0.172000
     47 C74          6.7810    17.9030    11.4580 ca         1 Y9R       0.348900
     48 N73          7.1260    17.1230    12.4880 nb         1 Y9R      -0.670000
     49 C72          7.8330    17.6730    13.4740 ca         1 Y9R       0.379900
     50 H1          21.5990    25.0840    16.5970 ha         1 Y9R       0.131000
     51 H2          22.3130    29.0670    14.2560 hn         1 Y9R       0.471000
     52 H3          20.9040    29.3430    13.3540 hn         1 Y9R       0.471000
     53 H4          18.0310    25.7820    14.3140 ha         1 Y9R       0.131000
     54 H5          18.9680    27.9000    13.4920 ha         1 Y9R       0.117000
     55 H6          22.5390    27.2030    15.7770 ha         1 Y9R       0.117000
     56 H7          20.0670    24.4350    18.5220 h1         1 Y9R       0.049200
     57 H8          19.0900    25.9040    18.5760 h1         1 Y9R       0.049200
     58 H9          17.5320    24.7370    20.1620 hc         1 Y9R       0.040700
     59 H10         19.0680    24.8880    22.1020 hc         1 Y9R       0.041033
     60 H11         20.4600    24.8570    21.0140 hc         1 Y9R       0.041033
     61 H12         19.3370    26.2230    20.9730 hc         1 Y9R       0.041033
     62 H13         18.2500    22.6190    21.2300 hc         1 Y9R       0.041033
     63 H14         18.0390    22.3650    19.4950 hc         1 Y9R       0.041033
     64 H15         19.6620    22.5430    20.1680 hc         1 Y9R       0.041033
     65 H16         16.9130    25.8630    17.9490 h1         1 Y9R       0.052200
     66 H17         16.7060    25.1460    16.3610 h1         1 Y9R       0.052200
     67 H18         16.0450    23.7180    18.9710 h1         1 Y9R       0.060700
     68 H19         14.6430    25.4500    18.7440 ho         1 Y9R       0.440000
     69 H20         16.4750    22.3140    16.9820 h1         1 Y9R       0.096700
     70 H21         15.5460    23.6630    15.1860 hc         1 Y9R       0.065700
     71 H22         13.9550    23.6750    15.9340 hc         1 Y9R       0.065700
     72 H23         16.4400    20.9420    15.1150 ha         1 Y9R       0.119000
     73 H24         15.7780    18.8450    14.0090 ha         1 Y9R       0.110500
     74 H25         13.4270    18.4950    13.2980 ha         1 Y9R       0.111000
     75 H26         11.7530    20.2820    13.6910 ha         1 Y9R       0.110500
     76 H27         12.4180    22.3690    14.8210 ha         1 Y9R       0.119000
     77 H28         13.7080    21.9180    17.8370 hn         1 Y9R       0.323500
     78 H29         12.9670    20.0890    16.9330 ha         1 Y9R       0.140000
     79 H30         11.4930    15.6040    18.3690 hc         1 Y9R       0.045033
     80 H31         11.6990    15.7660    20.1130 hc         1 Y9R       0.045033
     81 H32         10.4230    16.6660    19.2730 hc         1 Y9R       0.045033
     82 H33         13.6780    16.9150    20.6290 ha         1 Y9R       0.116000
     83 H34         15.2810    18.7670    20.2820 ha         1 Y9R       0.133000
     84 H35         10.9030    17.2350    16.8230 hn         1 Y9R       0.513000
     85 H36          8.4890    21.6410    14.3770 ha         1 Y9R       0.135000
     86 H37          9.8880    22.3220    16.3170 h4         1 Y9R       0.024100
     87 H38          8.1440    20.8520    12.3640 ha         1 Y9R       0.121000
     88 H39          6.8220    19.8370    10.5230 ha         1 Y9R       0.126000
     89 H40          6.2130    17.4330    10.6630 h4         1 Y9R       0.022100
     90 H41          8.1010    17.0280    14.3020 h4         1 Y9R       0.038100
@<TRIPOS>BOND
     1     1     2 ar  
     2     1     5 ar  
     3     1     7 1   
     4     2    10 ar  
     5     2    50 1   
     6     3     4 1   
     7     3    51 1   
     8     3    52 1   
     9     4     9 ar  
    10     4    10 ar  
    11     5     9 ar  
    12     5    53 1   
    13     6     7 2   
    14     7     8 2   
    15     7    11 1   
    16     9    54 1   
    17    10    55 1   
    18    11    12 1   
    19    11    16 1   
    20    12    13 1   
    21    12    56 1   
    22    12    57 1   
    23    13    14 1   
    24    13    15 1   
    25    13    58 1   
    26    14    59 1   
    27    14    60 1   
    28    14    61 1   
    29    15    62 1   
    30    15    63 1   
    31    15    64 1   
    32    16    17 1   
    33    16    65 1   
    34    16    66 1   
    35    17    18 1   
    36    17    19 1   
    37    17    67 1   
    38    18    68 1   
    39    19    20 1   
    40    19    27 1   
    41    19    69 1   
    42    20    21 1   
    43    20    70 1   
    44    20    71 1   
    45    21    22 ar  
    46    21    26 ar  
    47    22    23 ar  
    48    22    72 1   
    49    23    24 ar  
    50    23    73 1   
    51    24    25 ar  
    52    24    74 1   
    53    25    26 ar  
    54    25    75 1   
    55    26    76 1   
    56    27    28 1   
    57    27    77 1   
    58    28    29 2   
    59    28    30 1   
    60    30    31 ar  
    61    30    36 ar  
    62    31    32 ar  
    63    31    78 1   
    64    32    33 ar  
    65    32    37 1   
    66    33    34 1   
    67    33    35 ar  
    68    34    79 1   
    69    34    80 1   
    70    34    81 1   
    71    35    36 ar  
    72    35    82 1   
    73    36    83 1   
    74    37    38 1   
    75    37    84 1   
    76    38    39 ar  
    77    38    43 ar  
    78    39    40 ar  
    79    40    41 ar  
    80    40    44 1   
    81    41    42 ar  
    82    41    85 1   
    83    42    43 ar  
    84    42    86 1   
    85    44    45 ar  
    86    44    49 ar  
    87    45    46 ar  
    88    45    87 1   
    89    46    47 ar  
    90    46    88 1   
    91    47    48 ar  
    92    47    89 1   
    93    48    49 ar  
    94    49    90 1   
@<TRIPOS>SUBSTRUCTURE
     1 Y9R         1 TEMP              0 ****  ****    0 ROOT
