@<TRIPOS>MOLECULE
Y9T
   57    59     1     0     0
SMALL
No Charge or Current Charge


@<TRIPOS>ATOM
      1 N3         -31.6180     5.8500    16.1240 nb         1 Y9T      -0.646000
      2 C4         -31.5100     7.1740    16.4520 ca         1 Y9T       0.290500
      3 C5         -30.7160     8.0550    15.6880 ca         1 Y9T      -0.081000
      4 C6         -30.0220     7.5700    14.5670 ca         1 Y9T      -0.087000
      5 C15        -34.2950     5.5010    20.0700 ca         1 Y9T      -0.095300
      6 C17        -35.6590     6.7980    21.6450 ca         1 Y9T      -0.069000
      7 C22        -35.8810     9.0110    21.7440 cc         1 Y9T      -0.196100
      8 C26        -41.2900    10.2510    23.5240 c3         1 Y9T      -0.123600
      9 C1         -30.1410     6.2090    14.2420 ca         1 Y9T      -0.095000
     10 C2         -30.9460     5.3730    15.0420 ca         1 Y9T       0.238300
     11 F8         -31.7940     3.1780    15.6190 f          1 Y9T      -0.104333
     12 F9         -31.7110     3.6980    13.5100 f          1 Y9T      -0.104333
     13 F10        -29.8790     3.2730    14.5980 f          1 Y9T      -0.104333
     14 C11        -32.2670     7.6940    17.6750 c          1 Y9T       0.508600
     15 O12        -32.2000     8.8640    18.0480 o          1 Y9T      -0.583100
     16 N13        -33.0150     6.7160    18.3280 ns         1 Y9T      -0.148000
     17 C14        -33.8800     6.7370    19.4590 ca         1 Y9T      -0.063000
     18 C16        -35.2050     5.5630    21.1690 ca         1 Y9T      -0.067000
     19 C18        -35.2410     7.9510    21.0490 ca         1 Y9T      -0.144000
     20 C19        -34.3680     7.9700    19.9620 ca         1 Y9T      -0.045000
     21 N20        -36.5440     7.0130    22.7040 nc         1 Y9T      -0.281400
     22 N21        -36.6510     8.4070    22.7300 na         1 Y9T       0.152500
     23 C23        -37.5130     9.0770    23.7160 c3         1 Y9T       0.081600
     24 C25        -39.8970    10.0720    24.1670 c3         1 Y9T       0.186000
     25 C27        -39.3640    11.4320    24.6750 c3         1 Y9T      -0.123600
     26 O28        -40.0510     9.2110    25.2940 oh         1 Y9T      -0.661000
     27 C30        -34.3880     3.7830    18.1640 c3         1 Y9T      -0.098600
     28 C31        -32.2550     3.9780    19.5650 c3         1 Y9T      -0.098600
     29 O32        -34.2600     3.0610    20.4220 oh         1 Y9T      -0.662000
     30 H1         -30.6410     9.1040    15.9620 ha         1 Y9T       0.156000
     31 H2         -29.4060     8.2340    13.9640 ha         1 Y9T       0.133000
     32 H3         -35.8590    10.0880    21.6280 h4         1 Y9T       0.227000
     33 H4         -38.8170    10.0410    22.2790 hc         1 Y9T       0.066200
     34 H5         -39.3730     8.4610    22.8060 hc         1 Y9T       0.066200
     35 H6         -41.9990    10.7010    24.2310 hc         1 Y9T       0.043033
     36 H7         -41.2300    10.9060    22.6460 hc         1 Y9T       0.043033
     37 H8         -41.7010     9.2870    23.2000 hc         1 Y9T       0.043033
     38 H9         -29.6170     5.8040    13.3800 ha         1 Y9T       0.145000
     39 H10        -32.9220     5.8040    17.8990 hn         1 Y9T       0.184000
     40 H11        -35.5760     4.6680    21.6600 ha         1 Y9T       0.138000
     41 H12        -34.1040     8.9250    19.5200 ha         1 Y9T       0.122000
     42 H13        -37.6000     8.4300    24.5970 h1         1 Y9T       0.073700
     43 H14        -37.0140    10.0020    24.0270 h1         1 Y9T       0.073700
     44 H15        -40.0970    11.9210    25.3290 hc         1 Y9T       0.043033
     45 H16        -38.4370    11.3120    25.2490 hc         1 Y9T       0.043033
     46 H17        -39.1610    12.1070    23.8350 hc         1 Y9T       0.043033
     47 H18        -40.7050     9.6360    25.8900 ho         1 Y9T       0.444000
     48 H19        -35.4830     3.8480    18.1830 hc         1 Y9T       0.044700
     49 H20        -34.0250     4.4700    17.3940 hc         1 Y9T       0.044700
     50 H21        -34.1150     2.7670    17.8540 hc         1 Y9T       0.044700
     51 H22        -31.8400     4.3290    20.5170 hc         1 Y9T       0.044700
     52 H23        -31.9520     2.9320    19.4290 hc         1 Y9T       0.044700
     53 H24        -31.7830     4.5440    18.7580 hc         1 Y9T       0.044700
     54 H25        -33.7970     3.1840    21.2770 ho         1 Y9T       0.445000
     55 C7         -31.0860     3.8770    14.6970 c3         1 Y9T       0.269700
     56 C29        -33.8020     4.1070    19.5590 c3         1 Y9T       0.237300
     57 C24        -38.9230     9.3970    23.1610 c3         1 Y9T      -0.081400
@<TRIPOS>BOND
     1     1     2 ar  
     2     1    10 ar  
     3     2     3 ar  
     4     2    14 1   
     5     3     4 ar  
     6     3    30 1   
     7     4     9 ar  
     8     4    31 1   
     9     5    17 ar  
    10     5    18 ar  
    11     5    56 1   
    12     6    18 ar  
    13     6    19 ar  
    14     6    21 2   
    15     7    19 2   
    16     7    22 1   
    17     7    32 1   
    18     8    24 1   
    19     8    35 1   
    20     8    36 1   
    21     8    37 1   
    22     9    10 ar  
    23     9    38 1   
    24    10    55 1   
    25    11    55 1   
    26    12    55 1   
    27    13    55 1   
    28    14    15 2   
    29    14    16 1   
    30    16    17 1   
    31    16    39 1   
    32    17    20 ar  
    33    18    40 1   
    34    19    20 ar  
    35    20    41 1   
    36    21    22 1   
    37    22    23 1   
    38    23    42 1   
    39    23    43 1   
    40    23    57 1   
    41    24    25 1   
    42    24    26 1   
    43    24    57 1   
    44    25    44 1   
    45    25    45 1   
    46    25    46 1   
    47    26    47 1   
    48    27    48 1   
    49    27    49 1   
    50    27    50 1   
    51    27    56 1   
    52    28    51 1   
    53    28    52 1   
    54    28    53 1   
    55    28    56 1   
    56    29    54 1   
    57    29    56 1   
    58    33    57 1   
    59    34    57 1   
@<TRIPOS>SUBSTRUCTURE
     1 Y9T         1 TEMP              0 ****  ****    0 ROOT
