@<TRIPOS>MOLECULE
Y9T
   57    59     1     0     0
SMALL
abcg2


@<TRIPOS>ATOM
      1 N3         -32.0410     6.2260    15.8950 nb         1 Y9T      -0.646000
      2 C4         -31.2460     6.7710    16.8000 ca         1 Y9T       0.290500
      3 C5         -29.9330     7.1310    16.5210 ca         1 Y9T      -0.081000
      4 C6         -29.4520     6.9050    15.2440 ca         1 Y9T      -0.087000
      5 C15        -34.1450     5.5480    20.3500 ca         1 Y9T      -0.095300
      6 C17        -35.4860     7.0460    21.6810 ca         1 Y9T      -0.069000
      7 C22        -35.8520     9.2100    21.3750 cc         1 Y9T      -0.196100
      8 C26        -41.2250     9.2950    23.7250 c3         1 Y9T      -0.123600
      9 C1         -30.2860     6.3400    14.2890 ca         1 Y9T      -0.095000
     10 C2         -31.5770     6.0210    14.6760 ca         1 Y9T       0.238300
     11 F8         -32.9870     4.2130    14.1840 f          1 Y9T      -0.104333
     12 F9         -33.6740     6.1740    13.6400 f          1 Y9T      -0.104333
     13 F10        -32.0950     5.2390    12.5110 f          1 Y9T      -0.104333
     14 C11        -31.8240     6.9950    18.1710 c          1 Y9T       0.508600
     15 O12        -31.1930     7.5730    19.0380 o          1 Y9T      -0.583100
     16 N13        -33.0590     6.4870    18.3180 ns         1 Y9T      -0.148000
     17 C14        -33.8520     6.6580    19.4800 ca         1 Y9T      -0.063000
     18 C16        -34.9670     5.7580    21.4290 ca         1 Y9T      -0.067000
     19 C18        -35.1690     8.1290    20.8260 ca         1 Y9T      -0.144000
     20 C19        -34.3460     7.9140    19.7100 ca         1 Y9T      -0.045000
     21 N20        -36.2960     7.4360    22.6710 nc         1 Y9T      -0.281400
     22 N21        -36.4850     8.7310    22.4500 na         1 Y9T       0.152500
     23 C23        -37.3710     9.4830    23.3190 c3         1 Y9T       0.081600
     24 C25        -39.8290     9.8780    23.9390 c3         1 Y9T       0.186000
     25 C27        -39.8290    11.3560    23.5490 c3         1 Y9T      -0.123600
     26 O28        -39.4330     9.7210    25.2950 oh         1 Y9T      -0.661000
     27 C30        -34.2340     3.5150    18.8600 c3         1 Y9T      -0.098600
     28 C31        -32.0690     4.1020    20.0030 c3         1 Y9T      -0.098600
     29 O32        -33.9850     3.2750    21.1660 oh         1 Y9T      -0.662000
     30 H1         -29.3080     7.5730    17.2840 ha         1 Y9T       0.156000
     31 H2         -28.4350     7.1690    14.9870 ha         1 Y9T       0.133000
     32 H3         -35.9260    10.2440    21.0810 h4         1 Y9T       0.227000
     33 H4         -39.0800     9.1970    22.0500 hc         1 Y9T       0.066200
     34 H5         -38.9320     8.0150    23.3400 hc         1 Y9T       0.066200
     35 H6         -41.9620     9.8260    24.3320 hc         1 Y9T       0.043033
     36 H7         -41.5350     9.3830    22.6830 hc         1 Y9T       0.043033
     37 H8         -41.2570     8.2390    23.9990 hc         1 Y9T       0.043033
     38 H9         -29.9280     6.1600    13.2850 ha         1 Y9T       0.145000
     39 H10        -33.4680     6.0630    17.4960 hn         1 Y9T       0.184000
     40 H11        -35.2330     4.9470    22.0910 ha         1 Y9T       0.138000
     41 H12        -34.1150     8.7180    19.0220 ha         1 Y9T       0.122000
     42 H13        -37.0560     9.3110    24.3470 h1         1 Y9T       0.073700
     43 H14        -37.2120    10.5360    23.0930 h1         1 Y9T       0.073700
     44 H15        -40.5870    11.9010    24.1170 hc         1 Y9T       0.043033
     45 H16        -38.8680    11.8340    23.7450 hc         1 Y9T       0.043033
     46 H17        -40.0590    11.4810    22.4910 hc         1 Y9T       0.043033
     47 H18        -40.0360    10.2310    25.8460 ho         1 Y9T       0.444000
     48 H19        -35.3210     3.5000    18.9450 hc         1 Y9T       0.044700
     49 H20        -33.9750     4.0610    17.9560 hc         1 Y9T       0.044700
     50 H21        -33.8840     2.4900    18.7310 hc         1 Y9T       0.044700
     51 H22        -31.6050     4.6190    20.8450 hc         1 Y9T       0.044700
     52 H23        -31.7330     3.0640    20.0120 hc         1 Y9T       0.044700
     53 H24        -31.7020     4.5510    19.0860 hc         1 Y9T       0.044700
     54 H25        -33.4640     3.4970    21.9460 ho         1 Y9T       0.445000
     55 C7         -32.5840     5.4070    13.7410 c3         1 Y9T       0.269700
     56 C29        -33.5970     4.1300    20.1060 c3         1 Y9T       0.237300
     57 C24        -38.8250     9.0770    23.1070 c3         1 Y9T      -0.081400
@<TRIPOS>BOND
     1     1     2 ar  
     2     1    10 ar  
     3     2     3 ar  
     4     2    14 1   
     5     3     4 ar  
     6     3    30 1   
     7     4     9 ar  
     8     4    31 1   
     9     5    17 ar  
    10     5    18 ar  
    11     5    56 1   
    12     6    18 ar  
    13     6    19 ar  
    14     6    21 2   
    15     7    19 2   
    16     7    22 1   
    17     7    32 1   
    18     8    24 1   
    19     8    35 1   
    20     8    36 1   
    21     8    37 1   
    22     9    10 ar  
    23     9    38 1   
    24    10    55 1   
    25    11    55 1   
    26    12    55 1   
    27    13    55 1   
    28    14    15 2   
    29    14    16 1   
    30    16    17 1   
    31    16    39 1   
    32    17    20 ar  
    33    18    40 1   
    34    19    20 ar  
    35    20    41 1   
    36    21    22 1   
    37    22    23 1   
    38    23    42 1   
    39    23    43 1   
    40    23    57 1   
    41    24    25 1   
    42    24    26 1   
    43    24    57 1   
    44    25    44 1   
    45    25    45 1   
    46    25    46 1   
    47    26    47 1   
    48    27    48 1   
    49    27    49 1   
    50    27    50 1   
    51    27    56 1   
    52    28    51 1   
    53    28    52 1   
    54    28    53 1   
    55    28    56 1   
    56    29    54 1   
    57    29    56 1   
    58    33    57 1   
    59    34    57 1   
@<TRIPOS>SUBSTRUCTURE
     1 Y9T         1 TEMP              0 ****  ****    0 ROOT
