@<TRIPOS>MOLECULE
Y9X
   65    68     1     0     0
SMALL
abcg2


@<TRIPOS>ATOM
      1 N1         -21.5820     7.8230    11.9840 nc         1 Y9X      -0.376000
      2 N3         -21.0050     8.3930     9.9630 nd         1 Y9X      -0.191800
      3 C4         -20.3000     4.5050    11.6340 ca         1 Y9X      -0.094000
      4 C5         -27.5530    10.0020     5.3150 ca         1 Y9X      -0.082000
      5 C6         -25.1960     9.6550     5.2890 ca         1 Y9X      -0.082000
      6 C7         -27.6190     9.4720     6.5930 ca         1 Y9X      -0.147500
      7 C8         -25.2390     9.1210     6.5730 ca         1 Y9X      -0.147500
      8 C10        -24.3710     6.2160    11.5230 ca         1 Y9X      -0.108000
      9 C13        -23.7770     5.6590    12.6570 cp         1 Y9X      -0.018000
     10 C15        -25.5260     6.6080    14.0560 ca         1 Y9X      -0.056300
     11 C17        -25.5240     6.9800    11.6460 ca         1 Y9X      -0.016000
     12 C20        -25.6840     7.9160     9.3480 c          1 Y9X       0.670100
     13 C22        -25.9040     8.0360    17.6550 c3         1 Y9X      -0.090100
     14 C24        -26.1110     6.8300    15.4260 c3         1 Y9X      -0.034100
     15 C26        -28.4100    10.0240    13.0240 c3         1 Y9X      -0.080400
     16 C1         -21.3700     2.7570    12.8820 ca         1 Y9X      -0.090000
     17 C2         -20.2760     3.2220    12.1610 ca         1 Y9X      -0.109000
     18 C3         -22.4860     3.5650    13.0540 ca         1 Y9X      -0.104000
     19 C9         -24.3660     5.8450    13.9040 ca         1 Y9X      -0.105000
     20 C11        -22.5410     4.8540    12.5180 cp         1 Y9X       0.017000
     21 C12        -21.4160     5.3280    11.8170 ca         1 Y9X      -0.132500
     22 C14        -26.3400    10.1030     4.6310 ca         1 Y9X      -0.104300
     23 C16        -26.4630     9.0200     7.2410 ca         1 Y9X      -0.011000
     24 C18        -26.0920     7.1790    12.9190 ca         1 Y9X       0.054100
     25 C19        -21.3540     6.7040    11.3130 cd         1 Y9X       0.458000
     26 C23        -28.9620     9.9290    11.6020 c3         1 Y9X      -0.090100
     27 C25        -25.2830     7.7990    16.2820 c3         1 Y9X      -0.075400
     28 C27        -27.0800     9.3270    13.2100 c3         1 Y9X       0.153600
     29 N2         -21.3590     8.8380    11.1200 nc         1 Y9X      -0.049000
     30 N4         -20.9940     7.0580    10.0680 na         1 Y9X      -0.215700
     31 N5         -26.6210     8.5110     8.5400 ns         1 Y9X      -0.161000
     32 N6         -26.2100     7.5400    10.5650 ns         1 Y9X      -0.162000
     33 O1         -24.5140     7.7330     9.0300 o          1 Y9X      -0.615100
     34 O2         -27.2610     7.9070    12.9860 os         1 Y9X      -0.388100
     35 H4         -19.4400     4.8890    11.1000 ha         1 Y9X       0.116000
     36 H5         -28.4650    10.3470     4.8410 ha         1 Y9X       0.112500
     37 H6         -24.2360     9.7280     4.7920 ha         1 Y9X       0.112500
     38 H7         -28.5730     9.4090     7.1040 ha         1 Y9X       0.128500
     39 H8         -24.3350     8.7880     7.0540 ha         1 Y9X       0.128500
     40 H10        -23.9470     6.0510    10.5460 ha         1 Y9X       0.142000
     41 H12        -26.3770     9.8420     2.4910 hc         1 Y9X       0.041033
     42 H11        -27.0800    11.3600     3.0440 hc         1 Y9X       0.041033
     43 H13        -25.3230    11.1420     3.0390 hc         1 Y9X       0.041033
     44 H16        -25.3030     8.7300    18.2460 hc         1 Y9X       0.033033
     45 H14        -26.9090     8.4580    17.5610 hc         1 Y9X       0.033033
     46 H15        -25.9870     7.1010    18.2140 hc         1 Y9X       0.033033
     47 H21        -27.1300     7.2070    15.3350 hc         1 Y9X       0.053200
     48 H20        -26.1700     5.8690    15.9460 hc         1 Y9X       0.053200
     49 H25        -29.1290     9.6120    13.7370 hc         1 Y9X       0.052700
     50 H24        -28.2630    11.0730    13.2970 hc         1 Y9X       0.052700
     51 H1         -21.3600     1.7590    13.3010 ha         1 Y9X       0.119000
     52 H2         -19.4050     2.5960    12.0170 ha         1 Y9X       0.121000
     53 H3         -23.3470     3.1870    13.5890 ha         1 Y9X       0.124000
     54 H9         -23.9070     5.4070    14.7820 ha         1 Y9X       0.119000
     55 H19        -29.8810    10.5090    11.5010 hc         1 Y9X       0.033700
     56 H18        -28.2400    10.3120    10.8770 hc         1 Y9X       0.033700
     57 H17        -29.1940     8.8960    11.3350 hc         1 Y9X       0.033700
     58 H23        -24.2710     7.4000    16.3950 hc         1 Y9X       0.043700
     59 H22        -25.1800     8.7500    15.7520 hc         1 Y9X       0.043700
     60 H27        -26.6970     9.4790    14.2210 h1         1 Y9X       0.042200
     61 H26        -26.3380     9.7030    12.4980 h1         1 Y9X       0.042200
     62 H28        -20.7610     6.4770     9.2740 hn         1 Y9X       0.385000
     63 H29        -27.5630     8.5670     8.8970 hn         1 Y9X       0.147000
     64 H30        -27.1340     7.8700    10.8030 hn         1 Y9X       0.163000
     65 C21        -26.2760    10.6450     3.2280 c3         1 Y9X      -0.040800
@<TRIPOS>BOND
     1     1    25 2   
     2     1    29 1   
     3     2    29 2   
     4     2    30 1   
     5     3    17 ar  
     6     3    21 ar  
     7     3    35 1   
     8     4     6 ar  
     9     4    22 ar  
    10     4    36 1   
    11     5     7 ar  
    12     5    22 ar  
    13     5    37 1   
    14     6    23 ar  
    15     6    38 1   
    16     7    23 ar  
    17     7    39 1   
    18     8     9 ar  
    19     8    11 ar  
    20     8    40 1   
    21     9    19 ar  
    22     9    20 1   
    23    10    14 1   
    24    10    19 ar  
    25    10    24 ar  
    26    11    24 ar  
    27    11    32 1   
    28    12    31 1   
    29    12    32 1   
    30    12    33 2   
    31    13    27 1   
    32    13    44 1   
    33    13    45 1   
    34    13    46 1   
    35    14    27 1   
    36    14    47 1   
    37    14    48 1   
    38    15    26 1   
    39    15    28 1   
    40    15    49 1   
    41    15    50 1   
    42    16    17 ar  
    43    16    18 ar  
    44    16    51 1   
    45    17    52 1   
    46    18    20 ar  
    47    18    53 1   
    48    19    54 1   
    49    20    21 ar  
    50    21    25 1   
    51    22    65 1   
    52    23    31 1   
    53    24    34 1   
    54    25    30 1   
    55    26    55 1   
    56    26    56 1   
    57    26    57 1   
    58    27    58 1   
    59    27    59 1   
    60    28    34 1   
    61    28    60 1   
    62    28    61 1   
    63    30    62 1   
    64    31    63 1   
    65    32    64 1   
    66    41    65 1   
    67    42    65 1   
    68    43    65 1   
@<TRIPOS>SUBSTRUCTURE
     1 Y9X         1 TEMP              0 ****  ****    0 ROOT
