@<TRIPOS>MOLECULE
Y9X
   65    68     1     0     0
SMALL
No Charge or Current Charge


@<TRIPOS>ATOM
      1 N1         -21.5610     7.7850    12.2000 nc         1 Y9X      -0.376000
      2 N3         -20.1170     8.5730    10.7040 nd         1 Y9X      -0.191800
      3 C4         -20.1270     4.4350    11.8880 ca         1 Y9X      -0.094000
      4 C5         -27.7410    10.3510     5.3550 ca         1 Y9X      -0.082000
      5 C6         -25.6480     9.2550     4.8020 ca         1 Y9X      -0.082000
      6 C7         -27.6300     9.8890     6.6780 ca         1 Y9X      -0.147500
      7 C8         -25.5370     8.7930     6.1250 ca         1 Y9X      -0.147500
      8 C10        -24.2220     6.3210    11.4990 ca         1 Y9X      -0.108000
      9 C13        -23.6820     5.6840    12.6400 cp         1 Y9X      -0.018000
     10 C15        -25.5180     6.6090    13.9890 ca         1 Y9X      -0.056300
     11 C17        -25.3860     7.1130    11.5870 ca         1 Y9X      -0.016000
     12 C20        -25.5630     7.9390     9.1550 c          1 Y9X       0.670100
     13 C22        -26.0970     7.7950    17.6960 c3         1 Y9X      -0.090100
     14 C24        -26.1970     6.7280    15.3540 c3         1 Y9X      -0.034100
     15 C26        -28.4090    10.0910    13.0540 c3         1 Y9X      -0.080400
     16 C1         -21.4400     2.6200    12.8260 ca         1 Y9X      -0.090000
     17 C2         -20.2360     3.0950    12.2930 ca         1 Y9X      -0.109000
     18 C3         -22.5350     3.4870    12.9450 ca         1 Y9X      -0.104000
     19 C9         -24.3530     5.8280    13.8740 ca         1 Y9X      -0.105000
     20 C11        -22.4540     4.8400    12.5360 cp         1 Y9X       0.017000
     21 C12        -21.2210     5.3260    11.9950 ca         1 Y9X      -0.132500
     22 C14        -26.7490    10.0380     4.4100 ca         1 Y9X      -0.104300
     23 C16        -26.5300     9.1080     7.0780 ca         1 Y9X      -0.011000
     24 C18        -26.0240     7.2560    12.8380 ca         1 Y9X       0.054100
     25 C19        -20.9870     6.7430    11.6290 cd         1 Y9X       0.458000
     26 C23        -28.8940    10.0950    11.5870 c3         1 Y9X      -0.090100
     27 C25        -25.4000     7.6200    16.3320 c3         1 Y9X      -0.075400
     28 C27        -27.0340     9.4220    13.2520 c3         1 Y9X       0.153600
     29 N2         -21.0130     8.8920    11.5960 nc         1 Y9X      -0.049000
     30 N4         -20.0780     7.2150    10.7190 na         1 Y9X      -0.215700
     31 N5         -26.4890     8.6790     8.4340 ns         1 Y9X      -0.161000
     32 N6         -25.9680     7.7770    10.4710 ns         1 Y9X      -0.162000
     33 O1         -24.5190     7.4920     8.6940 o          1 Y9X      -0.615100
     34 O2         -27.1590     8.0320    12.9130 os         1 Y9X      -0.388100
     35 H4         -19.1680     4.7810    11.5060 ha         1 Y9X       0.116000
     36 H5         -28.6010    10.9520     5.0650 ha         1 Y9X       0.112500
     37 H6         -24.8750     9.0010     4.0790 ha         1 Y9X       0.112500
     38 H7         -28.4080    10.1430     7.3950 ha         1 Y9X       0.128500
     39 H8         -24.6720     8.1910     6.3850 ha         1 Y9X       0.128500
     40 H10        -23.7160     6.1770    10.5500 ha         1 Y9X       0.142000
     41 H12        -27.4100     9.8080     2.3570 hc         1 Y9X       0.041033
     42 H11        -27.4080    11.4860     2.9260 hc         1 Y9X       0.041033
     43 H13        -25.8820    10.6900     2.5230 hc         1 Y9X       0.041033
     44 H16        -25.4930     8.4310    18.3540 hc         1 Y9X       0.033033
     45 H14        -27.0800     8.2650    17.5720 hc         1 Y9X       0.033033
     46 H15        -26.2350     6.8250    18.1880 hc         1 Y9X       0.033033
     47 H21        -27.2160     7.1200    15.2580 hc         1 Y9X       0.053200
     48 H20        -26.3050     5.7290    15.7950 hc         1 Y9X       0.053200
     49 H25        -29.1510     9.5860    13.6840 hc         1 Y9X       0.052700
     50 H24        -28.3470    11.1270    13.4080 hc         1 Y9X       0.052700
     51 H1         -21.5270     1.5830    13.1420 ha         1 Y9X       0.119000
     52 H2         -19.3810     2.4280    12.2030 ha         1 Y9X       0.121000
     53 H3         -23.4700     3.1050    13.3470 ha         1 Y9X       0.124000
     54 H9         -23.9540     5.3300    14.7550 ha         1 Y9X       0.119000
     55 H19        -29.8540    10.6170    11.5050 hc         1 Y9X       0.033700
     56 H18        -28.1700    10.6050    10.9410 hc         1 Y9X       0.033700
     57 H17        -29.0310     9.0720    11.2170 hc         1 Y9X       0.033700
     58 H23        -24.4060     7.1870    16.4940 hc         1 Y9X       0.043700
     59 H22        -25.2460     8.6070    15.8810 hc         1 Y9X       0.043700
     60 H27        -26.7160     9.5390    14.2960 h1         1 Y9X       0.042200
     61 H26        -26.2910     9.9150    12.6110 h1         1 Y9X       0.042200
     62 H28        -19.4680     6.6730    10.1210 hn         1 Y9X       0.385000
     63 H29        -27.2930     8.9730     8.9730 hn         1 Y9X       0.147000
     64 H30        -26.8500     8.2190    10.6910 hn         1 Y9X       0.163000
     65 C21        -26.8680    10.5330     2.9760 c3         1 Y9X      -0.040800
@<TRIPOS>BOND
     1     1    25 2   
     2     1    29 1   
     3     2    29 2   
     4     2    30 1   
     5     3    17 ar  
     6     3    21 ar  
     7     3    35 1   
     8     4     6 ar  
     9     4    22 ar  
    10     4    36 1   
    11     5     7 ar  
    12     5    22 ar  
    13     5    37 1   
    14     6    23 ar  
    15     6    38 1   
    16     7    23 ar  
    17     7    39 1   
    18     8     9 ar  
    19     8    11 ar  
    20     8    40 1   
    21     9    19 ar  
    22     9    20 1   
    23    10    14 1   
    24    10    19 ar  
    25    10    24 ar  
    26    11    24 ar  
    27    11    32 1   
    28    12    31 1   
    29    12    32 1   
    30    12    33 2   
    31    13    27 1   
    32    13    44 1   
    33    13    45 1   
    34    13    46 1   
    35    14    27 1   
    36    14    47 1   
    37    14    48 1   
    38    15    26 1   
    39    15    28 1   
    40    15    49 1   
    41    15    50 1   
    42    16    17 ar  
    43    16    18 ar  
    44    16    51 1   
    45    17    52 1   
    46    18    20 ar  
    47    18    53 1   
    48    19    54 1   
    49    20    21 ar  
    50    21    25 1   
    51    22    65 1   
    52    23    31 1   
    53    24    34 1   
    54    25    30 1   
    55    26    55 1   
    56    26    56 1   
    57    26    57 1   
    58    27    58 1   
    59    27    59 1   
    60    28    34 1   
    61    28    60 1   
    62    28    61 1   
    63    30    62 1   
    64    31    63 1   
    65    32    64 1   
    66    41    65 1   
    67    42    65 1   
    68    43    65 1   
@<TRIPOS>SUBSTRUCTURE
     1 Y9X         1 TEMP              0 ****  ****    0 ROOT
