@<TRIPOS>MOLECULE
Y9Y
   36    37     1     0     0
SMALL
No Charge or Current Charge


@<TRIPOS>ATOM
      1 C1         103.0970   -39.7390   -85.0480 c6         1 Y9Y       0.376300
      2 C2         103.2350   -40.6200   -86.3470 c6         1 Y9Y       0.135300
      3 O2         104.4100   -40.3220   -87.1410 oh         1 Y9Y      -0.696000
      4 C3         103.2250   -42.1350   -85.9680 c6         1 Y9Y       0.183300
      5 O3         103.2470   -42.9420   -87.1570 oh         1 Y9Y      -0.628000
      6 C4         101.9600   -42.4870   -85.1300 c6         1 Y9Y       0.103300
      7 O4         100.7850   -42.3660   -85.9690 oh         1 Y9Y      -0.698000
      8 C5         101.9170   -41.5370   -83.8880 c6         1 Y9Y       0.136300
      9 C6         100.6770   -41.7790   -82.9660 c3         1 Y9Y       0.168600
     10 O6         100.6700   -40.9370   -81.7980 oh         1 Y9Y      -0.703000
     11 O5         101.9210   -40.1460   -84.3080 os         1 Y9Y      -0.410000
     12 O1         104.2420   -39.8390   -84.1670 os         1 Y9Y      -0.383100
     13 C7         105.4180   -39.1500   -84.3930 ca         1 Y9Y       0.239100
     14 C8         105.5330   -38.0810   -85.3060 ca         1 Y9Y      -0.194500
     15 C9         106.7600   -37.4120   -85.4640 ca         1 Y9Y      -0.000500
     16 C10        107.8880   -37.7990   -84.7040 ca         1 Y9Y      -0.232200
     17 C11        107.7640   -38.8630   -83.7830 ca         1 Y9Y      -0.000500
     18 C12        106.5340   -39.5250   -83.6320 ca         1 Y9Y      -0.194500
     19 N1         109.1950   -37.0880   -84.8710 no         1 Y9Y       0.703200
     20 O7         109.2570   -36.1600   -85.6880 o          1 Y9Y      -0.408000
     21 O8         110.1560   -37.4610   -84.1850 o          1 Y9Y      -0.408000
     22 H1         102.9490   -38.6910   -85.3420 h2         1 Y9Y       0.082700
     23 H2         102.3370   -40.4230   -86.9500 h1         1 Y9Y       0.078700
     24 H3         104.5450   -41.1150   -87.7130 ho         1 Y9Y       0.509000
     25 H4         104.1150   -42.3470   -85.3570 h1         1 Y9Y       0.057700
     26 H5         102.2950   -43.0750   -87.3750 ho         1 Y9Y       0.445000
     27 H6         102.0590   -43.5230   -84.7720 h1         1 Y9Y       0.038700
     28 H7         100.0380   -42.8150   -85.5100 ho         1 Y9Y       0.505000
     29 H8         102.8110   -41.7240   -83.2740 h1         1 Y9Y       0.073700
     30 H9          99.7660   -41.6050   -83.5540 h1         1 Y9Y       0.027200
     31 H10        100.6770   -42.8350   -82.6650 h1         1 Y9Y       0.027200
     32 H11         99.8230   -41.1100   -81.3230 ho         1 Y9Y       0.508000
     33 H12        104.6920   -37.7530   -85.9060 ha         1 Y9Y       0.130000
     34 H13        106.8240   -36.5940   -86.1800 ha         1 Y9Y       0.149000
     35 H14        108.6130   -39.1830   -83.1780 ha         1 Y9Y       0.149000
     36 H15        106.4450   -40.3400   -82.9190 ha         1 Y9Y       0.130000
@<TRIPOS>BOND
     1     1     2 1   
     2     1    11 1   
     3     1    12 1   
     4     1    22 1   
     5     2     3 1   
     6     2     4 1   
     7     2    23 1   
     8     3    24 1   
     9     4     5 1   
    10     4     6 1   
    11     4    25 1   
    12     5    26 1   
    13     6     7 1   
    14     6     8 1   
    15     6    27 1   
    16     7    28 1   
    17     8     9 1   
    18     8    11 1   
    19     8    29 1   
    20     9    10 1   
    21     9    30 1   
    22     9    31 1   
    23    10    32 1   
    24    12    13 1   
    25    13    14 ar  
    26    13    18 ar  
    27    14    15 ar  
    28    14    33 1   
    29    15    16 ar  
    30    15    34 1   
    31    16    17 ar  
    32    16    19 1   
    33    17    18 ar  
    34    17    35 1   
    35    18    36 1   
    36    19    20 1   
    37    19    21 1   
@<TRIPOS>SUBSTRUCTURE
     1 Y9Y         1 TEMP              0 ****  ****    0 ROOT
