@<TRIPOS>MOLECULE
Y9Y
   36    37     1     0     0
SMALL
abcg2


@<TRIPOS>ATOM
      1 C1         103.1700   -39.8950   -85.1960 c6         1 Y9Y       0.376300
      2 C2         103.1890   -40.8110   -86.4310 c6         1 Y9Y       0.135300
      3 O2         104.3760   -40.6330   -87.1570 oh         1 Y9Y      -0.696000
      4 C3         103.0710   -42.2700   -86.0110 c6         1 Y9Y       0.183300
      5 O3         102.9950   -43.0530   -87.1720 oh         1 Y9Y      -0.628000
      6 C4         101.8530   -42.4470   -85.1020 c6         1 Y9Y       0.103300
      7 O4         100.6920   -42.2000   -85.8560 oh         1 Y9Y      -0.698000
      8 C5         101.9870   -41.5030   -83.9090 c6         1 Y9Y       0.136300
      9 C6         100.7930   -41.5660   -82.9830 c3         1 Y9Y       0.168600
     10 O6         101.0760   -40.8270   -81.8190 oh         1 Y9Y      -0.703000
     11 O5         102.1190   -40.1540   -84.3470 os         1 Y9Y      -0.410000
     12 O1         104.3740   -40.0770   -84.4570 os         1 Y9Y      -0.383100
     13 C7         105.4460   -39.2940   -84.5770 ca         1 Y9Y       0.239100
     14 C8         105.5790   -38.2280   -85.4710 ca         1 Y9Y      -0.194500
     15 C9         106.7370   -37.4760   -85.4800 ca         1 Y9Y      -0.000500
     16 C10        107.7720   -37.7820   -84.6060 ca         1 Y9Y      -0.232200
     17 C11        107.6550   -38.8420   -83.7130 ca         1 Y9Y      -0.000500
     18 C12        106.4980   -39.5880   -83.7010 ca         1 Y9Y      -0.194500
     19 N1         108.9810   -36.9940   -84.6270 no         1 Y9Y       0.703200
     20 O7         109.0690   -36.1000   -85.4390 o          1 Y9Y      -0.408000
     21 O8         109.8520   -37.2630   -83.8300 o          1 Y9Y      -0.408000
     22 H1         103.0620   -38.8500   -85.4990 h2         1 Y9Y       0.082700
     23 H2         102.3110   -40.5490   -87.0350 h1         1 Y9Y       0.078700
     24 H3         104.2630   -39.8980   -87.7680 ho         1 Y9Y       0.509000
     25 H4         103.9580   -42.5380   -85.4180 h1         1 Y9Y       0.057700
     26 H5         103.0450   -43.9800   -86.9160 ho         1 Y9Y       0.445000
     27 H6         101.8620   -43.4750   -84.7120 h1         1 Y9Y       0.038700
     28 H7          99.9480   -42.6530   -85.4490 ho         1 Y9Y       0.505000
     29 H8         102.8740   -41.8100   -83.3370 h1         1 Y9Y       0.073700
     30 H9          99.9050   -41.1810   -83.5000 h1         1 Y9Y       0.027200
     31 H10        100.6030   -42.6240   -82.7550 h1         1 Y9Y       0.027200
     32 H11        100.2890   -40.8290   -81.2660 ho         1 Y9Y       0.508000
     33 H12        104.8030   -37.9720   -86.1770 ha         1 Y9Y       0.130000
     34 H13        106.8240   -36.6560   -86.1780 ha         1 Y9Y       0.149000
     35 H14        108.4530   -39.0890   -83.0280 ha         1 Y9Y       0.149000
     36 H15        106.3960   -40.4140   -83.0100 ha         1 Y9Y       0.130000
@<TRIPOS>BOND
     1     1     2 1   
     2     1    11 1   
     3     1    12 1   
     4     1    22 1   
     5     2     3 1   
     6     2     4 1   
     7     2    23 1   
     8     3    24 1   
     9     4     5 1   
    10     4     6 1   
    11     4    25 1   
    12     5    26 1   
    13     6     7 1   
    14     6     8 1   
    15     6    27 1   
    16     7    28 1   
    17     8     9 1   
    18     8    11 1   
    19     8    29 1   
    20     9    10 1   
    21     9    30 1   
    22     9    31 1   
    23    10    32 1   
    24    12    13 1   
    25    13    14 ar  
    26    13    18 ar  
    27    14    15 ar  
    28    14    33 1   
    29    15    16 ar  
    30    15    34 1   
    31    16    17 ar  
    32    16    19 1   
    33    17    18 ar  
    34    17    35 1   
    35    18    36 1   
    36    19    20 1   
    37    19    21 1   
@<TRIPOS>SUBSTRUCTURE
     1 Y9Y         1 TEMP              0 ****  ****    0 ROOT
