@<TRIPOS>MOLECULE
Y9Z
   54    56     1     0     0
SMALL
No Charge or Current Charge


@<TRIPOS>ATOM
      1 N            4.7080     2.1540    -2.5890 ns         1 Y9Z      -0.459400
      2 C            3.3710     2.1520    -2.8440 c          1 Y9Z       0.517500
      3 O            2.8900     2.7670    -3.7880 o          1 Y9Z      -0.541000
      4 P           -1.8300    -2.9890     0.9620 p5         1 Y9Z       1.447800
      5 P1          -4.4330    -2.8940     0.6500 p5         1 Y9Z       1.474800
      6 C1           5.2750     1.4840    -1.5590 cc         1 Y9Z       0.693800
      7 N1           6.5860     1.5960    -1.4530 nv         1 Y9Z      -1.059200
      8 O1           3.6920    -0.6860     3.3450 oh         1 Y9Z      -0.713000
      9 C2           3.2880     0.6900    -0.8440 cd         1 Y9Z       0.085400
     10 N2           4.6690     0.7440    -0.6560 nd         1 Y9Z      -0.687100
     11 O2           1.4130     0.4500     4.3660 oh         1 Y9Z      -0.707000
     12 C3           2.6250     1.3330    -1.8550 cc         1 Y9Z       0.106500
     13 N3           1.2740     1.0890    -1.7780 nc         1 Y9Z      -0.616000
     14 O3          -0.9850    -2.8400     2.3270 os         1 Y9Z      -0.553400
     15 C4           1.1160     0.2910    -0.7170 cd         1 Y9Z       0.464400
     16 N4           2.3410     0.0250    -0.1040 na         1 Y9Z      -0.206500
     17 O4          -3.2130    -2.5740     1.5900 os         1 Y9Z      -0.687800
     18 C5           2.5780    -0.7970     1.0820 c5         1 Y9Z       0.320300
     19 N5          -3.6450     0.1680    -0.2170 ns         1 Y9Z      -0.493900
     20 O5          -5.4940    -1.9280     1.3920 os         1 Y9Z      -0.609400
     21 C6           2.8550     0.0090     2.4040 c5         1 Y9Z       0.089300
     22 O6          -2.9240     2.3170    -0.4310 o          1 Y9Z      -0.694100
     23 C7           1.4110     0.1130     2.9670 c5         1 Y9Z       0.081300
     24 O7          -4.8990    -4.3060     0.7810 o          1 Y9Z      -0.850500
     25 C8           0.9190    -1.3350     2.6770 c5         1 Y9Z       0.143300
     26 O8          -4.2740    -2.4640    -0.7700 o          1 Y9Z      -0.850500
     27 C9          -0.6170    -1.5390     2.8090 c3         1 Y9Z       0.225600
     28 O9          -1.7740    -4.4120     0.5110 o          1 Y9Z      -0.844500
     29 C10         -5.6800    -0.5240     1.1140 c3         1 Y9Z       0.229600
     30 O10         -1.3450    -2.0310    -0.0720 o          1 Y9Z      -0.844500
     31 C11         -4.3510     0.2870     1.0650 c3         1 Y9Z       0.074000
     32 O11          1.3990    -1.6060     1.3380 os         1 Y9Z      -0.391000
     33 C12         -3.0060     1.1820    -0.8810 c          1 Y9Z       0.623100
     34 C13         -2.4120     0.7890    -2.2280 c3         1 Y9Z      -0.172100
     35 H1           5.2930     2.6700    -3.2250 hn         1 Y9Z       0.302500
     36 H2           7.0020     2.4510    -1.8010 hn         1 Y9Z       0.484500
     37 H3           6.9610     1.2530    -0.5760 hn         1 Y9Z       0.484500
     38 H4           3.2650    -0.5030     4.2190 ho         1 Y9Z       0.513000
     39 H5           1.3280     1.4310     4.4380 ho         1 Y9Z       0.494000
     40 H6           0.1810    -0.1080    -0.3390 h5         1 Y9Z       0.153100
     41 H7           3.4350    -1.4370     0.8360 h2         1 Y9Z       0.103700
     42 H8          -3.6440    -0.7470    -0.6730 hn         1 Y9Z       0.376500
     43 H9           3.2720     1.0010     2.1820 h1         1 Y9Z       0.063700
     44 H10          0.8160     0.8400     2.3930 h1         1 Y9Z       0.060700
     45 H12          1.4030    -2.0470     3.3580 h1         1 Y9Z       0.085700
     46 H13         -1.1350    -0.7440     2.2550 h1         1 Y9Z       0.020200
     47 H14         -0.8970    -1.4370     3.8650 h1         1 Y9Z       0.020200
     48 H15         -6.2220    -0.3890     0.1690 h1         1 Y9Z       0.005200
     49 H16         -6.3060    -0.0910     1.9050 h1         1 Y9Z       0.005200
     50 H18         -3.6850    -0.0260     1.8790 h1         1 Y9Z       0.031700
     51 H19         -4.5990     1.3430     1.2310 h1         1 Y9Z       0.031700
     52 H20         -3.2150     0.4070    -2.8680 hc         1 Y9Z       0.055367
     53 H21         -1.8730     1.6120    -2.7100 hc         1 Y9Z       0.055367
     54 H22         -1.7790    -0.0960    -2.1020 hc         1 Y9Z       0.055367
@<TRIPOS>BOND
     1     1     2 1   
     2     1     6 1   
     3     1    35 1   
     4     2     3 2   
     5     2    12 1   
     6     4    14 1   
     7     4    17 1   
     8     4    28 1   
     9     4    30 1   
    10     5    17 1   
    11     5    20 1   
    12     5    24 1   
    13     5    26 1   
    14     6     7 1   
    15     6    10 2   
    16     7    36 1   
    17     7    37 1   
    18     8    21 1   
    19     8    38 1   
    20     9    10 1   
    21     9    12 2   
    22     9    16 1   
    23    11    23 1   
    24    11    39 1   
    25    12    13 1   
    26    13    15 2   
    27    14    27 1   
    28    15    16 1   
    29    15    40 1   
    30    16    18 1   
    31    18    21 1   
    32    18    32 1   
    33    18    41 1   
    34    19    31 1   
    35    19    33 1   
    36    19    42 1   
    37    20    29 1   
    38    21    23 1   
    39    21    43 1   
    40    22    33 2   
    41    23    25 1   
    42    23    44 1   
    43    25    27 1   
    44    25    32 1   
    45    25    45 1   
    46    27    46 1   
    47    27    47 1   
    48    29    31 1   
    49    29    48 1   
    50    29    49 1   
    51    31    50 1   
    52    31    51 1   
    53    33    34 1   
    54    34    52 1   
    55    34    53 1   
    56    34    54 1   
@<TRIPOS>SUBSTRUCTURE
     1 Y9Z         1 TEMP              0 ****  ****    0 ROOT
