@<TRIPOS>MOLECULE
Y9Z
   54    56     1     0     0
SMALL
bcc


@<TRIPOS>ATOM
      1 N            5.0900     2.0700    -2.1840 ns         1 Y9Z      -0.526400
      2 C            3.7230     2.1500    -2.4790 c          1 Y9Z       0.660000
      3 O            3.3220     2.8980    -3.3560 o          1 Y9Z      -0.616500
      4 P           -2.0580    -1.2190     1.1450 p5         1 Y9Z       1.447800
      5 P1          -4.3950    -2.9720     0.7980 p5         1 Y9Z       1.474800
      6 C1           5.6620     1.2740    -1.2340 cc         1 Y9Z       0.693800
      7 N1           7.0010     1.3040    -1.1410 nv         1 Y9Z      -0.948800
      8 O1           4.2100    -1.6730     2.9010 oh         1 Y9Z      -0.590800
      9 C2           3.6500     0.5240    -0.6930 cd         1 Y9Z       0.070800
     10 N2           4.9700     0.4800    -0.4570 nd         1 Y9Z      -0.687100
     11 O2           2.6160     0.0110     4.3840 oh         1 Y9Z      -0.584800
     12 C3           2.9760     1.2760    -1.6390 cc         1 Y9Z       0.171800
     13 N3           1.6320     1.0160    -1.5940 nc         1 Y9Z      -0.616000
     14 O3          -1.0400    -1.4860     2.4170 os         1 Y9Z      -0.530200
     15 C4           1.4920     0.1370    -0.6470 cd         1 Y9Z       0.464400
     16 N4           2.6870    -0.1860    -0.0450 na         1 Y9Z      -0.227900
     17 O4          -3.0070    -2.5100     1.5280 os         1 Y9Z      -0.687800
     18 C5           2.9110    -1.1950     0.9940 c5         1 Y9Z       0.267800
     19 N5          -5.0910     0.0200    -0.7440 ns         1 Y9Z      -0.560900
     20 O5          -5.4290    -1.9200     1.5120 os         1 Y9Z      -0.586200
     21 C6           3.6030    -0.6080     2.2200 c5         1 Y9Z       0.066100
     22 O6          -4.6600     2.2340    -0.7450 o          1 Y9Z      -0.694100
     23 C7           2.4010    -0.0720     3.0020 c5         1 Y9Z       0.058100
     24 O7          -4.6820    -4.3520     1.2920 o          1 Y9Z      -0.850500
     25 C8           1.3240    -1.1130     2.6960 c5         1 Y9Z       0.120100
     26 O8          -4.3400    -2.6910    -0.6800 o          1 Y9Z      -0.850500
     27 C9          -0.0580    -0.5030     2.6590 c3         1 Y9Z       0.202400
     28 O9          -1.3270    -1.4860    -0.1340 o          1 Y9Z      -0.844500
     29 C10         -6.4770    -1.2920     0.7910 c3         1 Y9Z       0.206400
     30 O10         -2.7870     0.0670     1.3680 o          1 Y9Z      -0.844500
     31 C11         -6.0970     0.0880     0.2900 c3         1 Y9Z       0.074000
     32 O11          1.6830    -1.6770     1.4350 os         1 Y9Z      -0.344600
     33 C12         -4.3680     1.0910    -1.0890 c          1 Y9Z       0.690100
     34 C13         -3.1880     0.8150    -1.9870 c3         1 Y9Z      -0.172100
     35 H1           5.6930     2.6610    -2.7420 hn         1 Y9Z       0.302500
     36 H2           7.5290     2.0550    -1.5510 hn         1 Y9Z       0.429300
     37 H3           7.4180     0.8550    -0.3420 hn         1 Y9Z       0.429300
     38 H4           4.1970    -1.4630     3.8430 ho         1 Y9Z       0.414000
     39 H5           3.0650     0.8410     4.5760 ho         1 Y9Z       0.395000
     40 H6           0.5570    -0.3310    -0.3650 h5         1 Y9Z       0.153100
     41 H7           3.4910    -2.0100     0.5510 h2         1 Y9Z       0.103700
     42 H8          -4.7060    -0.9070    -0.9260 hn         1 Y9Z       0.376500
     43 H9           4.3250     0.1760     1.9710 h1         1 Y9Z       0.063700
     44 H10          2.1120     0.9020     2.5860 h1         1 Y9Z       0.060700
     45 H12          1.3530    -1.9090     3.4500 h1         1 Y9Z       0.085700
     46 H13         -0.0790     0.3050     1.9170 h1         1 Y9Z       0.020200
     47 H14         -0.2420    -0.0340     3.6320 h1         1 Y9Z       0.020200
     48 H15         -6.8250    -1.9120    -0.0410 h1         1 Y9Z       0.005200
     49 H16         -7.3180    -1.1820     1.4790 h1         1 Y9Z       0.005200
     50 H18         -5.7390     0.6910     1.1290 h1         1 Y9Z       0.031700
     51 H19         -7.0090     0.5680    -0.0800 h1         1 Y9Z       0.031700
     52 H20         -2.9400    -0.2410    -2.0560 hc         1 Y9Z       0.055367
     53 H21         -3.3880     1.2020    -2.9870 hc         1 Y9Z       0.055367
     54 H22         -2.3120     1.3330    -1.5980 hc         1 Y9Z       0.055367
@<TRIPOS>BOND
     1     1     2 1   
     2     1     6 1   
     3     1    35 1   
     4     2     3 2   
     5     2    12 1   
     6     4    14 1   
     7     4    17 1   
     8     4    28 1   
     9     4    30 1   
    10     5    17 1   
    11     5    20 1   
    12     5    24 1   
    13     5    26 1   
    14     6     7 1   
    15     6    10 2   
    16     7    36 1   
    17     7    37 1   
    18     8    21 1   
    19     8    38 1   
    20     9    10 1   
    21     9    12 2   
    22     9    16 1   
    23    11    23 1   
    24    11    39 1   
    25    12    13 1   
    26    13    15 2   
    27    14    27 1   
    28    15    16 1   
    29    15    40 1   
    30    16    18 1   
    31    18    21 1   
    32    18    32 1   
    33    18    41 1   
    34    19    31 1   
    35    19    33 1   
    36    19    42 1   
    37    20    29 1   
    38    21    23 1   
    39    21    43 1   
    40    22    33 2   
    41    23    25 1   
    42    23    44 1   
    43    25    27 1   
    44    25    32 1   
    45    25    45 1   
    46    27    46 1   
    47    27    47 1   
    48    29    31 1   
    49    29    48 1   
    50    29    49 1   
    51    31    50 1   
    52    31    51 1   
    53    33    34 1   
    54    34    52 1   
    55    34    53 1   
    56    34    54 1   
@<TRIPOS>SUBSTRUCTURE
     1 Y9Z         1 TEMP              0 ****  ****    0 ROOT
