@<TRIPOS>MOLECULE
YA1
   86    88     1     0     0
SMALL
abcg2


@<TRIPOS>ATOM
      1 O2          -6.3890    -1.7000    -2.7400 oh         1 YA1      -0.653500
      2 C3          -6.3780    -0.5990    -1.8680 c6         1 YA1       0.211000
      3 C2          -7.7360    -0.2400    -1.3200 c2         1 YA1      -0.198400
      4 C9          -8.8540    -0.8930    -1.6170 c2         1 YA1      -0.299000
      5 C1          -7.7270     0.9040    -0.3350 c6         1 YA1       0.211000
      6 O1          -7.2810     2.1040    -0.9360 oh         1 YA1      -0.653500
      7 C6          -6.7640     0.5780     0.8070 c6         1 YA1      -0.032200
      8 C4          -5.4360    -0.9270    -0.7030 c6         1 YA1      -0.032200
      9 C5          -5.4080     0.2040     0.2850 c2         1 YA1      -0.107400
     10 C10         -4.3030     0.8590     0.6760 ce         1 YA1      -0.160000
     11 C11         -2.9430     0.5870     0.2460 ce         1 YA1      -0.191000
     12 C12         -1.8390     1.2550     0.6180 c2         1 YA1      -0.079400
     13 C13         -1.8040     2.4390     1.5460 c6         1 YA1      -0.042200
     14 C14         -0.7940     2.2510     2.6850 c6         1 YA1      -0.071400
     15 C15          0.5840     1.8140     2.1890 c6         1 YA1      -0.063400
     16 C17         -0.4690     0.8970     0.1350 c5         1 YA1      -0.036500
     17 C16          0.5020     0.5710     1.2990 c5         1 YA1      -0.035000
     18 C23          0.0080    -0.6390     2.0930 c3         1 YA1      -0.079100
     19 C18         -0.2640    -0.2420    -0.8510 c5         1 YA1      -0.071400
     20 C19          1.2430    -0.5440    -0.7400 c5         1 YA1      -0.077400
     21 C20          1.7800     0.2280     0.4970 c5         1 YA1      -0.054700
     22 C21          2.9070    -0.5380     1.2060 c3         1 YA1      -0.044700
     23 C22          3.3940     0.1330     2.4910 c3         1 YA1      -0.085100
     24 C24          4.0880    -0.8110     0.2420 c3         1 YA1      -0.057700
     25 C31          4.9620    -1.9850     0.7010 c3         1 YA1      -0.074400
     26 C32          4.2850    -3.3490     0.6310 c3         1 YA1      -0.077400
     27 C33          5.2230    -4.4970     0.9850 c3         1 YA1      -0.075400
     28 C34          4.5450    -5.8580     0.9250 c3         1 YA1      -0.089100
     29 C25          4.9360     0.4440    -0.0050 c3         1 YA1      -0.069400
     30 C26          5.7210     0.3820    -1.3110 c3         1 YA1      -0.104400
     31 C27          6.5670     1.6220    -1.6370 c3         1 YA1       0.183000
     32 C29          7.6550     1.8460    -0.5950 c3         1 YA1      -0.100100
     33 C28          7.2060     1.4430    -3.0150 c3         1 YA1      -0.100100
     34 O3           5.7610     2.7950    -1.6290 oh         1 YA1      -0.660000
     35 H1          -6.8610    -1.4490    -3.5400 ho         1 YA1       0.441500
     36 H2          -5.9720     0.2880    -2.3750 h1         1 YA1       0.042700
     37 H3          -9.8020    -0.5980    -1.1810 ha         1 YA1       0.167500
     38 H4          -8.8800    -1.7410    -2.2890 ha         1 YA1       0.167500
     39 H5          -8.7360     1.0250     0.0790 h1         1 YA1       0.042700
     40 H6          -7.8970     2.3310    -1.6400 ho         1 YA1       0.441500
     41 H7          -6.7070     1.4220     1.4980 hc         1 YA1       0.058200
     42 H8          -7.1940    -0.2630     1.3630 hc         1 YA1       0.058200
     43 H9          -5.8070    -1.8330    -0.2090 hc         1 YA1       0.058200
     44 H10         -4.4460    -1.1570    -1.0970 hc         1 YA1       0.058200
     45 H11         -4.4420     1.6640     1.3910 ha         1 YA1       0.170000
     46 H12         -2.8130    -0.2340    -0.4500 ha         1 YA1       0.172000
     47 H13         -1.5010     3.3160     0.9610 hc         1 YA1       0.046700
     48 H14         -2.7850     2.6730     1.9580 hc         1 YA1       0.046700
     49 H15         -0.7040     3.1900     3.2360 hc         1 YA1       0.039700
     50 H16         -1.1860     1.5210     3.3980 hc         1 YA1       0.039700
     51 H17          1.0320     2.6270     1.6050 hc         1 YA1       0.041200
     52 H18          1.2400     1.6530     3.0450 hc         1 YA1       0.041200
     53 H19         -0.0620     1.8060    -0.3360 hc         1 YA1       0.052700
     54 H20         -0.0130    -1.5480     1.4890 hc         1 YA1       0.034033
     55 H21          0.6500    -0.8370     2.9530 hc         1 YA1       0.034033
     56 H22         -1.0030    -0.4910     2.4720 hc         1 YA1       0.034033
     57 H23         -0.8530    -1.1170    -0.5690 hc         1 YA1       0.044700
     58 H24         -0.5660     0.0290    -1.8630 hc         1 YA1       0.044700
     59 H25          1.4130    -1.6180    -0.6250 hc         1 YA1       0.039700
     60 H26          1.7740    -0.2440    -1.6440 hc         1 YA1       0.039700
     61 H27          2.1850     1.1880     0.1490 hc         1 YA1       0.046700
     62 H28          2.4890    -1.5120     1.4860 hc         1 YA1       0.048700
     63 H29          3.5990     1.1950     2.3480 hc         1 YA1       0.032367
     64 H30          2.6640     0.0450     3.2950 hc         1 YA1       0.032367
     65 H31          4.3130    -0.3320     2.8520 hc         1 YA1       0.032367
     66 H32          3.6640    -1.1100    -0.7240 hc         1 YA1       0.043700
     67 H33          5.8580    -2.0190     0.0740 hc         1 YA1       0.038200
     68 H34          5.3250    -1.8100     1.7200 hc         1 YA1       0.038200
     69 H35          3.4220    -3.3800     1.3030 hc         1 YA1       0.037700
     70 H36          3.8890    -3.5060    -0.3790 hc         1 YA1       0.037700
     71 H37          6.0800    -4.4870     0.3030 hc         1 YA1       0.035700
     72 H38          5.6320    -4.3340     1.9870 hc         1 YA1       0.035700
     73 H39          3.7060    -5.9140     1.6210 hc         1 YA1       0.031367
     74 H40          4.1560    -6.0620    -0.0750 hc         1 YA1       0.031367
     75 H41          5.2370    -6.6620     1.1790 hc         1 YA1       0.031367
     76 H42          4.2950     1.3290    -0.0300 hc         1 YA1       0.047700
     77 H43          5.6190     0.5890     0.8370 hc         1 YA1       0.047700
     78 H44          6.3810    -0.4900    -1.3150 hc         1 YA1       0.039700
     79 H45          5.0130     0.2240    -2.1360 hc         1 YA1       0.039700
     80 H46          8.3140     0.9790    -0.5450 hc         1 YA1       0.040867
     81 H47          8.2670     2.7140    -0.8500 hc         1 YA1       0.040867
     82 H48          7.2430     2.0110     0.4020 hc         1 YA1       0.040867
     83 H49          6.4430     1.3140    -3.7880 hc         1 YA1       0.040867
     84 H50          7.8140     2.3090    -3.2810 hc         1 YA1       0.040867
     85 H51          7.8490     0.5620    -3.0400 hc         1 YA1       0.040867
     86 H52          5.0560     2.6750    -2.2750 ho         1 YA1       0.438000
@<TRIPOS>BOND
     1     1     2 1   
     2     1    35 1   
     3     2     3 1   
     4     2     8 1   
     5     2    36 1   
     6     3     4 2   
     7     3     5 1   
     8     4    37 1   
     9     4    38 1   
    10     5     6 1   
    11     5     7 1   
    12     5    39 1   
    13     6    40 1   
    14     7     9 1   
    15     7    41 1   
    16     7    42 1   
    17     8     9 1   
    18     8    43 1   
    19     8    44 1   
    20     9    10 2   
    21    10    11 1   
    22    10    45 1   
    23    11    12 2   
    24    11    46 1   
    25    12    13 1   
    26    12    16 1   
    27    13    14 1   
    28    13    47 1   
    29    13    48 1   
    30    14    15 1   
    31    14    49 1   
    32    14    50 1   
    33    15    17 1   
    34    15    51 1   
    35    15    52 1   
    36    16    17 1   
    37    16    19 1   
    38    16    53 1   
    39    17    18 1   
    40    17    21 1   
    41    18    54 1   
    42    18    55 1   
    43    18    56 1   
    44    19    20 1   
    45    19    57 1   
    46    19    58 1   
    47    20    21 1   
    48    20    59 1   
    49    20    60 1   
    50    21    22 1   
    51    21    61 1   
    52    22    23 1   
    53    22    24 1   
    54    22    62 1   
    55    23    63 1   
    56    23    64 1   
    57    23    65 1   
    58    24    25 1   
    59    24    29 1   
    60    24    66 1   
    61    25    26 1   
    62    25    67 1   
    63    25    68 1   
    64    26    27 1   
    65    26    69 1   
    66    26    70 1   
    67    27    28 1   
    68    27    71 1   
    69    27    72 1   
    70    28    73 1   
    71    28    74 1   
    72    28    75 1   
    73    29    30 1   
    74    29    76 1   
    75    29    77 1   
    76    30    31 1   
    77    30    78 1   
    78    30    79 1   
    79    31    32 1   
    80    31    33 1   
    81    31    34 1   
    82    32    80 1   
    83    32    81 1   
    84    32    82 1   
    85    33    83 1   
    86    33    84 1   
    87    33    85 1   
    88    34    86 1   
@<TRIPOS>SUBSTRUCTURE
     1 YA1         1 TEMP              0 ****  ****    0 ROOT
