@<TRIPOS>MOLECULE
YA1
   86    88     1     0     0
SMALL
No Charge or Current Charge


@<TRIPOS>ATOM
      1 O2          -6.4180    -1.2680    -3.0930 oh         1 YA1      -0.653500
      2 C3          -6.3810    -0.2100    -2.1300 c6         1 YA1       0.211000
      3 C2          -7.7980     0.2030    -1.6960 c2         1 YA1      -0.198400
      4 C9          -8.9420    -0.2880    -2.2190 c2         1 YA1      -0.299000
      5 C1          -7.8250     1.2540    -0.5870 c6         1 YA1       0.211000
      6 O1          -7.4420     2.5150    -1.1390 oh         1 YA1      -0.653500
      7 C6          -6.9040     0.8680     0.6020 c6         1 YA1      -0.032200
      8 C4          -5.5280    -0.6400    -0.9130 c6         1 YA1      -0.032200
      9 C5          -5.5020     0.4590     0.1530 c2         1 YA1      -0.107400
     10 C10         -4.3940     1.0330     0.6890 ce         1 YA1      -0.160000
     11 C11         -2.9890     0.7480     0.3290 ce         1 YA1      -0.191000
     12 C12         -1.8900     1.1820     1.0100 c2         1 YA1      -0.079400
     13 C13         -1.9040     2.0680     2.2630 c6         1 YA1      -0.042200
     14 C14         -0.8630     1.6280     3.3240 c6         1 YA1      -0.071400
     15 C15          0.5250     1.2950     2.7110 c6         1 YA1      -0.063400
     16 C17         -0.4890     0.8780     0.4320 c5         1 YA1      -0.036500
     17 C16          0.4220     0.2550     1.5460 c5         1 YA1      -0.035000
     18 C23         -0.0900    -1.1080     2.1330 c3         1 YA1      -0.079100
     19 C18         -0.3760    -0.1780    -0.7010 c5         1 YA1      -0.071400
     20 C19          1.1430    -0.5370    -0.6720 c5         1 YA1      -0.077400
     21 C20          1.7220     0.0790     0.6590 c5         1 YA1      -0.054700
     22 C21          2.9420    -0.7420     1.2230 c3         1 YA1      -0.044700
     23 C22          3.4980    -0.1950     2.5630 c3         1 YA1      -0.085100
     24 C24          4.1410    -0.9400     0.1520 c3         1 YA1      -0.057700
     25 C31          5.2490    -2.0030     0.5430 c3         1 YA1      -0.074400
     26 C32          4.7090    -3.3700     1.0260 c3         1 YA1      -0.077400
     27 C33          5.8230    -4.4190     1.2360 c3         1 YA1      -0.075400
     28 C34          5.2880    -5.7770     1.7260 c3         1 YA1      -0.089100
     29 C25          4.8250     0.4060    -0.3320 c3         1 YA1      -0.069400
     30 C26          5.8120     0.2660    -1.5270 c3         1 YA1      -0.104400
     31 C27          6.3080     1.6000    -2.1630 c3         1 YA1       0.183000
     32 C29          7.0010     2.5210    -1.1300 c3         1 YA1      -0.100100
     33 C28          7.2690     1.3030    -3.3380 c3         1 YA1      -0.100100
     34 O3           5.1870     2.3040    -2.6980 oh         1 YA1      -0.660000
     35 H1          -6.9500    -0.9270    -3.8430 ho         1 YA1       0.441500
     36 H2          -5.8950     0.6680    -2.5810 h1         1 YA1       0.042700
     37 H3          -9.9190     0.0470    -1.8680 ha         1 YA1       0.167500
     38 H4          -8.9600    -1.0440    -3.0040 ha         1 YA1       0.167500
     39 H5          -8.8500     1.3310    -0.1950 h1         1 YA1       0.042700
     40 H6          -8.0040     2.6380    -1.9340 ho         1 YA1       0.441500
     41 H7          -6.8640     1.6980     1.3200 hc         1 YA1       0.058200
     42 H8          -7.3600     0.0260     1.1420 hc         1 YA1       0.058200
     43 H9          -5.9590    -1.5500    -0.4730 hc         1 YA1       0.058200
     44 H10         -4.5270    -0.9220    -1.2540 hc         1 YA1       0.058200
     45 H11         -4.5460     1.7990     1.4470 ha         1 YA1       0.170000
     46 H12         -2.8630     0.1710    -0.5800 ha         1 YA1       0.172000
     47 H13         -1.6890     3.1010     1.9590 hc         1 YA1       0.046700
     48 H14         -2.8880     2.0890     2.7430 hc         1 YA1       0.046700
     49 H15         -0.7510     2.4210     4.0760 hc         1 YA1       0.039700
     50 H16         -1.2470     0.7570     3.8720 hc         1 YA1       0.039700
     51 H17          0.9870     2.2210     2.3410 hc         1 YA1       0.041200
     52 H18          1.1730     0.9340     3.5170 hc         1 YA1       0.041200
     53 H19         -0.0690     1.8280     0.0770 hc         1 YA1       0.052700
     54 H20         -0.0130    -1.9350     1.4180 hc         1 YA1       0.034033
     55 H21          0.4950    -1.4030     3.0120 hc         1 YA1       0.034033
     56 H22         -1.1400    -1.0570     2.4420 hc         1 YA1       0.034033
     57 H23         -0.9850    -1.0700    -0.5120 hc         1 YA1       0.044700
     58 H24         -0.6840     0.2220    -1.6740 hc         1 YA1       0.044700
     59 H25          1.2760    -1.6240    -0.7030 hc         1 YA1       0.039700
     60 H26          1.6650    -0.1340    -1.5480 hc         1 YA1       0.039700
     61 H27          2.1160     1.0790     0.4440 hc         1 YA1       0.046700
     62 H28          2.5570    -1.7440     1.4410 hc         1 YA1       0.048700
     63 H29          3.6320     0.8920     2.5210 hc         1 YA1       0.032367
     64 H30          2.8260    -0.4420     3.3900 hc         1 YA1       0.032367
     65 H31          4.4640    -0.6450     2.8140 hc         1 YA1       0.032367
     66 H32          3.6730    -1.3660    -0.7430 hc         1 YA1       0.043700
     67 H33          5.8780    -2.1990    -0.3320 hc         1 YA1       0.038200
     68 H34          5.9120    -1.5850     1.3100 hc         1 YA1       0.038200
     69 H35          4.1750    -3.2400     1.9740 hc         1 YA1       0.037700
     70 H36          3.9860    -3.7520     0.2940 hc         1 YA1       0.037700
     71 H37          6.3650    -4.5690     0.2930 hc         1 YA1       0.035700
     72 H38          6.5490    -4.0370     1.9650 hc         1 YA1       0.035700
     73 H39          4.7710    -5.6670     2.6870 hc         1 YA1       0.031367
     74 H40          4.5840    -6.2020     1.0010 hc         1 YA1       0.031367
     75 H41          6.1130    -6.4870     1.8600 hc         1 YA1       0.031367
     76 H42          4.0420     1.1130    -0.6230 hc         1 YA1       0.047700
     77 H43          5.3480     0.8570     0.5190 hc         1 YA1       0.047700
     78 H44          6.6940    -0.2920    -1.1940 hc         1 YA1       0.039700
     79 H45          5.3360    -0.3430    -2.3050 hc         1 YA1       0.039700
     80 H46          7.8360     2.0010    -0.6450 hc         1 YA1       0.040867
     81 H47          7.3980     3.4210    -1.6150 hc         1 YA1       0.040867
     82 H48          6.3010     2.8460    -0.3510 hc         1 YA1       0.040867
     83 H49          6.7860     0.6720    -4.0940 hc         1 YA1       0.040867
     84 H50          7.5920     2.2300    -3.8260 hc         1 YA1       0.040867
     85 H51          8.1650     0.7790    -2.9820 hc         1 YA1       0.040867
     86 H52          4.7110     1.6760    -3.2820 ho         1 YA1       0.438000
@<TRIPOS>BOND
     1     1     2 1   
     2     1    35 1   
     3     2     3 1   
     4     2     8 1   
     5     2    36 1   
     6     3     4 2   
     7     3     5 1   
     8     4    37 1   
     9     4    38 1   
    10     5     6 1   
    11     5     7 1   
    12     5    39 1   
    13     6    40 1   
    14     7     9 1   
    15     7    41 1   
    16     7    42 1   
    17     8     9 1   
    18     8    43 1   
    19     8    44 1   
    20     9    10 2   
    21    10    11 1   
    22    10    45 1   
    23    11    12 2   
    24    11    46 1   
    25    12    13 1   
    26    12    16 1   
    27    13    14 1   
    28    13    47 1   
    29    13    48 1   
    30    14    15 1   
    31    14    49 1   
    32    14    50 1   
    33    15    17 1   
    34    15    51 1   
    35    15    52 1   
    36    16    17 1   
    37    16    19 1   
    38    16    53 1   
    39    17    18 1   
    40    17    21 1   
    41    18    54 1   
    42    18    55 1   
    43    18    56 1   
    44    19    20 1   
    45    19    57 1   
    46    19    58 1   
    47    20    21 1   
    48    20    59 1   
    49    20    60 1   
    50    21    22 1   
    51    21    61 1   
    52    22    23 1   
    53    22    24 1   
    54    22    62 1   
    55    23    63 1   
    56    23    64 1   
    57    23    65 1   
    58    24    25 1   
    59    24    29 1   
    60    24    66 1   
    61    25    26 1   
    62    25    67 1   
    63    25    68 1   
    64    26    27 1   
    65    26    69 1   
    66    26    70 1   
    67    27    28 1   
    68    27    71 1   
    69    27    72 1   
    70    28    73 1   
    71    28    74 1   
    72    28    75 1   
    73    29    30 1   
    74    29    76 1   
    75    29    77 1   
    76    30    31 1   
    77    30    78 1   
    78    30    79 1   
    79    31    32 1   
    80    31    33 1   
    81    31    34 1   
    82    32    80 1   
    83    32    81 1   
    84    32    82 1   
    85    33    83 1   
    86    33    84 1   
    87    33    85 1   
    88    34    86 1   
@<TRIPOS>SUBSTRUCTURE
     1 YA1         1 TEMP              0 ****  ****    0 ROOT
