@<TRIPOS>MOLECULE
YA2
   89    91     1     0     0
SMALL
abcg2


@<TRIPOS>ATOM
      1 O31          4.1470    -0.9820     2.1730 oh         1 YA2      -0.665000
      2 C26          5.2580    -1.0200     1.2810 c3         1 YA2       0.186000
      3 C29          6.2260     0.0340     1.8240 c3         1 YA2      -0.084400
      4 C30          7.5710     0.1090     1.1150 c3         1 YA2      -0.086600
      5 C27          5.8800    -2.4280     1.3010 c3         1 YA2      -0.084400
      6 C28          6.3730    -2.9050     2.6610 c3         1 YA2      -0.086600
      7 C25          4.7820    -0.7330    -0.1550 c3         1 YA2      -0.100400
      8 C20          4.0240     0.5880    -0.3930 c3         1 YA2      -0.052700
      9 C21          4.9610     1.6890    -0.9040 c3         1 YA2      -0.075400
     10 C22          4.3490     3.0840    -0.9630 c3         1 YA2      -0.076400
     11 C23          5.3560     4.1500    -1.3790 c3         1 YA2      -0.075400
     12 C24          4.7490     5.5440    -1.4590 c3         1 YA2      -0.088100
     13 C18          2.8030     0.3780    -1.3260 c3         1 YA2      -0.048700
     14 C19          3.2210    -0.2990    -2.6330 c3         1 YA2      -0.086100
     15 C17          1.6620    -0.3440    -0.5940 c5         1 YA2      -0.052700
     16 C16          1.1820     0.4470     0.6540 c5         1 YA2      -0.081400
     17 C15         -0.3260     0.1770     0.8150 c5         1 YA2      -0.071400
     18 C13          0.3520    -0.6340    -1.3640 c5         1 YA2      -0.037000
     19 C14         -0.5960    -0.9430    -0.1770 c5         1 YA2      -0.035500
     20 C35         -0.1220     0.6050    -2.1270 c3         1 YA2      -0.079100
     21 C12          0.3680    -1.8650    -2.2750 c6         1 YA2      -0.062400
     22 C11         -1.0380    -2.2570    -2.7290 c6         1 YA2      -0.071400
     23 C10         -2.0140    -2.4320    -1.5600 c6         1 YA2      -0.042200
     24 C9          -1.9890    -1.2530    -0.6250 c2         1 YA2      -0.080400
     25 C8          -3.0610    -0.5500    -0.2260 ce         1 YA2      -0.189000
     26 C7          -4.4390    -0.7820    -0.6210 ce         1 YA2      -0.161000
     27 C1          -5.5130    -0.0840    -0.2200 c2         1 YA2      -0.106400
     28 C2          -6.8910    -0.4260    -0.7060 c6         1 YA2      -0.032200
     29 C6          -5.4860     1.0650     0.7470 c6         1 YA2      -0.032200
     30 C5          -6.4120     0.7870     1.9380 c6         1 YA2       0.211000
     31 O33         -6.3710     1.9030     2.7890 oh         1 YA2      -0.653500
     32 C4          -7.7920     0.4600     1.4240 c2         1 YA2      -0.199400
     33 C32         -8.8830     1.1540     1.7290 c2         1 YA2      -0.298000
     34 C3          -7.8370    -0.7020     0.4630 c6         1 YA2       0.211000
     35 O34         -7.4130    -1.9030     1.0770 oh         1 YA2      -0.653500
     36 H1           3.4930    -1.6170     1.8640 ho         1 YA2       0.439000
     37 H2           5.7370     1.0120     1.7900 hc         1 YA2       0.044950
     38 H3           6.3990    -0.1690     2.8850 hc         1 YA2       0.044950
     39 H4           8.1750     0.9130     1.5360 hc         1 YA2       0.033700
     40 H5           8.1430    -0.8140     1.2200 hc         1 YA2       0.033700
     41 H6           7.4680     0.3080     0.0480 hc         1 YA2       0.033700
     42 H7           5.1260    -3.1310     0.9290 hc         1 YA2       0.044950
     43 H8           6.6980    -2.4730     0.5770 hc         1 YA2       0.044950
     44 H9           7.2280    -2.3290     3.0170 hc         1 YA2       0.033700
     45 H10          5.5900    -2.8360     3.4160 hc         1 YA2       0.033700
     46 H11          6.6890    -3.9470     2.6070 hc         1 YA2       0.033700
     47 H12          5.6340    -0.7980    -0.8390 hc         1 YA2       0.042200
     48 H13          4.1410    -1.5780    -0.4330 hc         1 YA2       0.042200
     49 H14          3.6400     0.9370     0.5710 hc         1 YA2       0.062700
     50 H15          5.8310     1.7310    -0.2450 hc         1 YA2       0.038700
     51 H16          5.3580     1.4220    -1.8900 hc         1 YA2       0.038700
     52 H17          3.5080     3.1050    -1.6630 hc         1 YA2       0.038700
     53 H18          3.9330     3.3400     0.0180 hc         1 YA2       0.038700
     54 H19          6.1920     4.1570    -0.6720 hc         1 YA2       0.035700
     55 H20          5.7840     3.8810    -2.3500 hc         1 YA2       0.035700
     56 H21          5.4880     6.2840    -1.7680 hc         1 YA2       0.031367
     57 H22          3.9280     5.5770    -2.1770 hc         1 YA2       0.031367
     58 H23          4.3520     5.8580    -0.4920 hc         1 YA2       0.031367
     59 H24          2.4190     1.3710    -1.5830 hc         1 YA2       0.050700
     60 H25          3.3820    -1.3710    -2.5090 hc         1 YA2       0.031367
     61 H26          2.4730    -0.1700    -3.4140 hc         1 YA2       0.031367
     62 H27          4.1500     0.1250    -3.0190 hc         1 YA2       0.031367
     63 H28          2.0340    -1.3230    -0.2600 hc         1 YA2       0.037700
     64 H29          1.7400     0.1470     1.5410 hc         1 YA2       0.046700
     65 H30          1.3710     1.5150     0.5210 hc         1 YA2       0.046700
     66 H31         -0.5990    -0.1010     1.8340 hc         1 YA2       0.045200
     67 H32         -0.9040     1.0700     0.5660 hc         1 YA2       0.045200
     68 H33         -0.2050    -1.8700     0.2720 hc         1 YA2       0.050700
     69 H34         -0.1170     1.5000    -1.5030 hc         1 YA2       0.034367
     70 H35          0.5150     0.8070    -2.9890 hc         1 YA2       0.034367
     71 H36         -1.1410     0.4870    -2.4970 hc         1 YA2       0.034367
     72 H37          0.9990    -1.7090    -3.1510 hc         1 YA2       0.039200
     73 H38          0.8120    -2.6990    -1.7190 hc         1 YA2       0.039200
     74 H39         -1.4330    -1.5070    -3.4200 hc         1 YA2       0.039700
     75 H40         -0.9910    -3.1910    -3.2950 hc         1 YA2       0.039700
     76 H41         -3.0130    -2.6380    -1.9430 hc         1 YA2       0.046200
     77 H42         -1.7140    -3.3210    -0.9930 hc         1 YA2       0.046200
     78 H43         -2.8880     0.2690     0.4630 ha         1 YA2       0.173000
     79 H44         -4.6200    -1.5950    -1.3180 ha         1 YA2       0.170000
     80 H45         -7.3080     0.4160    -1.2690 hc         1 YA2       0.058200
     81 H46         -6.8740    -1.2850    -1.3810 hc         1 YA2       0.058200
     82 H47         -4.4820     1.2720     1.1160 hc         1 YA2       0.058200
     83 H48         -5.8420     1.9730     0.2450 hc         1 YA2       0.058200
     84 H49         -6.0230    -0.1030     2.4530 h1         1 YA2       0.042200
     85 H50         -6.8360     1.6830     3.6020 ho         1 YA2       0.441500
     86 H51         -8.8680     2.0150     2.3840 ha         1 YA2       0.167500
     87 H52         -9.8470     0.8800     1.3180 ha         1 YA2       0.167500
     88 H53         -8.8580    -0.8020     0.0720 h1         1 YA2       0.042200
     89 H54         -8.0090    -2.0880     1.8100 ho         1 YA2       0.441500
@<TRIPOS>BOND
     1     1     2 1   
     2     1    36 1   
     3     2     3 1   
     4     2     5 1   
     5     2     7 1   
     6     3     4 1   
     7     3    37 1   
     8     3    38 1   
     9     4    39 1   
    10     4    40 1   
    11     4    41 1   
    12     5     6 1   
    13     5    42 1   
    14     5    43 1   
    15     6    44 1   
    16     6    45 1   
    17     6    46 1   
    18     7     8 1   
    19     7    47 1   
    20     7    48 1   
    21     8     9 1   
    22     8    13 1   
    23     8    49 1   
    24     9    10 1   
    25     9    50 1   
    26     9    51 1   
    27    10    11 1   
    28    10    52 1   
    29    10    53 1   
    30    11    12 1   
    31    11    54 1   
    32    11    55 1   
    33    12    56 1   
    34    12    57 1   
    35    12    58 1   
    36    13    14 1   
    37    13    15 1   
    38    13    59 1   
    39    14    60 1   
    40    14    61 1   
    41    14    62 1   
    42    15    16 1   
    43    15    18 1   
    44    15    63 1   
    45    16    17 1   
    46    16    64 1   
    47    16    65 1   
    48    17    19 1   
    49    17    66 1   
    50    17    67 1   
    51    18    19 1   
    52    18    20 1   
    53    18    21 1   
    54    19    24 1   
    55    19    68 1   
    56    20    69 1   
    57    20    70 1   
    58    20    71 1   
    59    21    22 1   
    60    21    72 1   
    61    21    73 1   
    62    22    23 1   
    63    22    74 1   
    64    22    75 1   
    65    23    24 1   
    66    23    76 1   
    67    23    77 1   
    68    24    25 2   
    69    25    26 1   
    70    25    78 1   
    71    26    27 2   
    72    26    79 1   
    73    27    28 1   
    74    27    29 1   
    75    28    34 1   
    76    28    80 1   
    77    28    81 1   
    78    29    30 1   
    79    29    82 1   
    80    29    83 1   
    81    30    31 1   
    82    30    32 1   
    83    30    84 1   
    84    31    85 1   
    85    32    33 2   
    86    32    34 1   
    87    33    86 1   
    88    33    87 1   
    89    34    35 1   
    90    34    88 1   
    91    35    89 1   
@<TRIPOS>SUBSTRUCTURE
     1 YA2         1 TEMP              0 ****  ****    0 ROOT
