@<TRIPOS>MOLECULE
YA2
   89    91     1     0     0
SMALL
No Charge or Current Charge


@<TRIPOS>ATOM
      1 O31          4.0140    -0.9420     2.2120 oh         1 YA2      -0.665000
      2 C26          5.2100    -1.0050     1.4320 c3         1 YA2       0.186000
      3 C29          6.1950     0.0570     2.0170 c3         1 YA2      -0.084400
      4 C30          7.6140     0.0810     1.3980 c3         1 YA2      -0.086600
      5 C27          5.7680    -2.4610     1.5620 c3         1 YA2      -0.084400
      6 C28          6.1590    -2.9240     2.9880 c3         1 YA2      -0.086600
      7 C25          4.8140    -0.7470    -0.0640 c3         1 YA2      -0.100400
      8 C20          4.1070     0.6120    -0.4300 c3         1 YA2      -0.052700
      9 C21          5.1430     1.6790    -0.9250 c3         1 YA2      -0.075400
     10 C22          4.5800     3.1030    -1.1580 c3         1 YA2      -0.076400
     11 C23          5.6840     4.1490    -1.4250 c3         1 YA2      -0.075400
     12 C24          5.1280     5.5650    -1.6680 c3         1 YA2      -0.088100
     13 C18          2.8840     0.4110    -1.4130 c3         1 YA2      -0.048700
     14 C19          3.3280    -0.2640    -2.7410 c3         1 YA2      -0.086100
     15 C17          1.6340    -0.2660    -0.7260 c5         1 YA2      -0.052700
     16 C16          1.0920     0.5690     0.5010 c5         1 YA2      -0.081400
     17 C15         -0.4400     0.2890     0.5870 c5         1 YA2      -0.071400
     18 C13          0.3160    -0.5110    -1.5700 c5         1 YA2      -0.037000
     19 C14         -0.6070    -0.9210    -0.3700 c5         1 YA2      -0.035500
     20 C35         -0.1480     0.7720    -2.3490 c3         1 YA2      -0.079100
     21 C12          0.3600    -1.7160    -2.5690 c6         1 YA2      -0.062400
     22 C11         -1.0480    -2.0740    -3.1180 c6         1 YA2      -0.071400
     23 C10         -2.0920    -2.3100    -1.9960 c6         1 YA2      -0.042200
     24 C9          -2.0260    -1.2540    -0.8860 c2         1 YA2      -0.080400
     25 C8          -3.0990    -0.6850    -0.2640 ce         1 YA2      -0.189000
     26 C7          -4.5190    -0.9690    -0.5630 ce         1 YA2      -0.161000
     27 C1          -5.5980    -0.2820    -0.1050 c2         1 YA2      -0.106400
     28 C2          -7.0200    -0.7020    -0.4740 c6         1 YA2      -0.032200
     29 C6          -5.5690     0.9610     0.7870 c6         1 YA2      -0.032200
     30 C5          -6.4170     0.7460     2.0640 c6         1 YA2       0.211000
     31 O33         -6.4020     1.9350     2.8600 oh         1 YA2      -0.653500
     32 C4          -7.8530     0.3250     1.7110 c2         1 YA2      -0.199400
     33 C32         -8.9710     0.9290     2.1680 c2         1 YA2      -0.298000
     34 C3          -7.9340    -0.8750     0.7690 c6         1 YA2       0.211000
     35 O34         -7.5860    -2.0540     1.4970 oh         1 YA2      -0.653500
     36 H1           3.3690    -1.5420     1.7840 ho         1 YA2       0.439000
     37 H2           5.7490     1.0530     1.9280 hc         1 YA2       0.044950
     38 H3           6.3010    -0.1050     3.0960 hc         1 YA2       0.044950
     39 H4           8.1900     0.9190     1.8090 hc         1 YA2       0.033700
     40 H5           8.1600    -0.8420     1.6270 hc         1 YA2       0.033700
     41 H6           7.5810     0.1960     0.3090 hc         1 YA2       0.033700
     42 H7           5.0190    -3.1650     1.1780 hc         1 YA2       0.044950
     43 H8           6.6410    -2.5750     0.9090 hc         1 YA2       0.044950
     44 H9           6.9990    -2.3400     3.3810 hc         1 YA2       0.033700
     45 H10          5.3150    -2.8320     3.6810 hc         1 YA2       0.033700
     46 H11          6.4670    -3.9770     2.9690 hc         1 YA2       0.033700
     47 H12          5.7050    -0.8600    -0.6940 hc         1 YA2       0.042200
     48 H13          4.1700    -1.5790    -0.3700 hc         1 YA2       0.042200
     49 H14          3.7020     1.0280     0.4990 hc         1 YA2       0.062700
     50 H15          5.9390     1.7710    -0.1820 hc         1 YA2       0.038700
     51 H16          5.6390     1.3360    -1.8390 hc         1 YA2       0.038700
     52 H17          3.9000     3.0990    -2.0180 hc         1 YA2       0.038700
     53 H18          3.9960     3.4110    -0.2820 hc         1 YA2       0.038700
     54 H19          6.3720     4.1800    -0.5710 hc         1 YA2       0.035700
     55 H20          6.2720     3.8420    -2.2990 hc         1 YA2       0.035700
     56 H21          5.9460     6.2710    -1.8510 hc         1 YA2       0.031367
     57 H22          4.4630     5.5770    -2.5400 hc         1 YA2       0.031367
     58 H23          4.5620     5.9150    -0.7960 hc         1 YA2       0.031367
     59 H24          2.5400     1.4100    -1.6960 hc         1 YA2       0.050700
     60 H25          3.3990    -1.3520    -2.6300 hc         1 YA2       0.031367
     61 H26          2.6200    -0.0370    -3.5440 hc         1 YA2       0.031367
     62 H27          4.3000     0.1030    -3.0830 hc         1 YA2       0.031367
     63 H28          1.9860    -1.2360    -0.3590 hc         1 YA2       0.037700
     64 H29          1.5960     0.2770     1.4280 hc         1 YA2       0.046700
     65 H30          1.2730     1.6430     0.3790 hc         1 YA2       0.046700
     66 H31         -0.7570     0.0560     1.6100 hc         1 YA2       0.045200
     67 H32         -1.0130     1.1670     0.2640 hc         1 YA2       0.045200
     68 H33         -0.2180    -1.8200     0.1250 hc         1 YA2       0.050700
     69 H34         -0.0140     1.6920    -1.7710 hc         1 YA2       0.034367
     70 H35          0.4230     0.9020    -3.2750 hc         1 YA2       0.034367
     71 H36         -1.2080     0.7260    -2.6260 hc         1 YA2       0.034367
     72 H37          1.0140    -1.5100    -3.4220 hc         1 YA2       0.039200
     73 H38          0.7850    -2.5970    -2.0660 hc         1 YA2       0.039200
     74 H39         -1.4030    -1.2750    -3.7820 hc         1 YA2       0.039700
     75 H40         -0.9800    -2.9720    -3.7470 hc         1 YA2       0.039700
     76 H41         -3.0830    -2.3590    -2.4610 hc         1 YA2       0.046200
     77 H42         -1.9160    -3.2970    -1.5460 hc         1 YA2       0.046200
     78 H43         -2.9380     0.0130     0.5500 ha         1 YA2       0.173000
     79 H44         -4.7090    -1.8320    -1.1980 ha         1 YA2       0.170000
     80 H45         -7.4550     0.0670    -1.1270 hc         1 YA2       0.058200
     81 H46         -7.0200    -1.6290    -1.0620 hc         1 YA2       0.058200
     82 H47         -4.5540     1.2540     1.0720 hc         1 YA2       0.058200
     83 H48         -5.9750     1.8120     0.2230 hc         1 YA2       0.058200
     84 H49         -5.9530    -0.0730     2.6340 h1         1 YA2       0.042200
     85 H50         -6.9320     1.7270     3.6580 ho         1 YA2       0.441500
     86 H51         -8.9510     1.7930     2.8330 ha         1 YA2       0.167500
     87 H52         -9.9640     0.5820     1.8800 ha         1 YA2       0.167500
     88 H53         -8.9680    -0.9730     0.4040 h1         1 YA2       0.042200
     89 H54         -8.1380    -2.0390     2.3080 ho         1 YA2       0.441500
@<TRIPOS>BOND
     1     1     2 1   
     2     1    36 1   
     3     2     3 1   
     4     2     5 1   
     5     2     7 1   
     6     3     4 1   
     7     3    37 1   
     8     3    38 1   
     9     4    39 1   
    10     4    40 1   
    11     4    41 1   
    12     5     6 1   
    13     5    42 1   
    14     5    43 1   
    15     6    44 1   
    16     6    45 1   
    17     6    46 1   
    18     7     8 1   
    19     7    47 1   
    20     7    48 1   
    21     8     9 1   
    22     8    13 1   
    23     8    49 1   
    24     9    10 1   
    25     9    50 1   
    26     9    51 1   
    27    10    11 1   
    28    10    52 1   
    29    10    53 1   
    30    11    12 1   
    31    11    54 1   
    32    11    55 1   
    33    12    56 1   
    34    12    57 1   
    35    12    58 1   
    36    13    14 1   
    37    13    15 1   
    38    13    59 1   
    39    14    60 1   
    40    14    61 1   
    41    14    62 1   
    42    15    16 1   
    43    15    18 1   
    44    15    63 1   
    45    16    17 1   
    46    16    64 1   
    47    16    65 1   
    48    17    19 1   
    49    17    66 1   
    50    17    67 1   
    51    18    19 1   
    52    18    20 1   
    53    18    21 1   
    54    19    24 1   
    55    19    68 1   
    56    20    69 1   
    57    20    70 1   
    58    20    71 1   
    59    21    22 1   
    60    21    72 1   
    61    21    73 1   
    62    22    23 1   
    63    22    74 1   
    64    22    75 1   
    65    23    24 1   
    66    23    76 1   
    67    23    77 1   
    68    24    25 2   
    69    25    26 1   
    70    25    78 1   
    71    26    27 2   
    72    26    79 1   
    73    27    28 1   
    74    27    29 1   
    75    28    34 1   
    76    28    80 1   
    77    28    81 1   
    78    29    30 1   
    79    29    82 1   
    80    29    83 1   
    81    30    31 1   
    82    30    32 1   
    83    30    84 1   
    84    31    85 1   
    85    32    33 2   
    86    32    34 1   
    87    33    86 1   
    88    33    87 1   
    89    34    35 1   
    90    34    88 1   
    91    35    89 1   
@<TRIPOS>SUBSTRUCTURE
     1 YA2         1 TEMP              0 ****  ****    0 ROOT
