@<TRIPOS>MOLECULE
YA6
   66    71     1     0     0
SMALL
abcg2


@<TRIPOS>ATOM
      1 C01         36.0360    16.2950    35.7380 c3         1 YA6      -0.011100
      2 C03         35.5510    14.8180    33.4570 cc         1 YA6       0.500800
      3 C05         36.0080    15.5650    31.4390 cc         1 YA6      -0.123000
      4 C06         36.4160    16.5310    30.4210 ca         1 YA6      -0.019000
      5 C07         37.5780    17.2830    30.6020 ca         1 YA6      -0.100000
      6 C08         37.9800    18.2190    29.6600 ca         1 YA6      -0.092300
      7 C09         39.2510    19.0220    29.8070 c3         1 YA6       0.147300
      8 C11         40.9890    18.1620    31.3220 ca         1 YA6       0.087600
      9 C12         41.0320    16.9030    30.7250 ca         1 YA6      -0.170000
     10 C13         42.1840    16.1500    30.8090 ca         1 YA6       0.180000
     11 C15         43.3080    16.5990    31.4720 ca         1 YA6      -0.142000
     12 C16         43.2450    17.8350    32.0940 ca         1 YA6      -0.111000
     13 C17         42.1030    18.6260    32.0240 ca         1 YA6       0.217000
     14 C19         41.1380    19.9520    33.7280 ca         1 YA6       0.294000
     15 C20         41.5690    20.2400    35.0220 ca         1 YA6      -0.165000
     16 C21         40.6640    20.2770    36.0680 ca         1 YA6      -0.060000
     17 C22         39.3170    20.0170    35.8420 ca         1 YA6      -0.139000
     18 C23         38.8810    19.7710    34.5520 ca         1 YA6      -0.044000
     19 C24         39.7800    19.7380    33.4860 ca         1 YA6      -0.165600
     20 C25         39.2150    19.6840    32.1110 c          1 YA6       0.590600
     21 C27         37.2050    18.4010    28.5190 ca         1 YA6      -0.097000
     22 C28         36.0490    17.6580    28.3290 ca         1 YA6      -0.105000
     23 C29         35.6470    16.7300    29.2760 ca         1 YA6      -0.082000
     24 C30         35.5500    14.2680    31.3930 cd         1 YA6       0.305500
     25 C31         35.3950    13.3820    30.2420 ca         1 YA6      -0.045500
     26 C32         36.2000    13.4930    29.1070 ca         1 YA6      -0.190000
     27 C33         35.9960    12.6030    28.0710 ca         1 YA6       0.362900
     28 C35         34.3270    11.5220    29.1780 ca         1 YA6       0.470900
     29 C38         31.6750     8.8600    29.5200 c3         1 YA6      -0.180100
     30 C40         34.4440    12.3660    30.2810 ca         1 YA6      -0.148000
     31 F14         42.2030    14.9390    30.2310 f          1 YA6      -0.170000
     32 N04         36.0090    15.8870    32.7720 na         1 YA6      -0.296500
     33 N10         39.8560    18.9820    31.1300 n          1 YA6      -0.312000
     34 N18         42.0480    19.8760    32.6660 na         1 YA6      -0.921000
     35 N34         35.0830    11.6420    28.0920 nb         1 YA6      -0.738000
     36 N36         33.4230    10.4660    29.0890 ns         1 YA6      -0.324900
     37 N41         35.2630    13.8260    32.6580 nd         1 YA6      -0.635000
     38 O39         32.2470    10.6160    31.0300 o          1 YA6      -0.574100
     39 S02         35.3470    14.7190    35.1860 ss         1 YA6      -0.276300
     40 H1          35.9850    16.2770    36.8240 h1         1 YA6       0.068033
     41 H2          37.0780    16.4020    35.4410 h1         1 YA6       0.068033
     42 H3          35.4490    17.1400    35.3800 h1         1 YA6       0.068033
     43 H4          38.1750    17.1190    31.4920 ha         1 YA6       0.113000
     44 H5          39.9940    18.6650    29.0930 h1         1 YA6       0.071200
     45 H6          39.0530    20.0620    29.5410 h1         1 YA6       0.071200
     46 H7          40.1800    16.5080    30.1870 ha         1 YA6       0.148000
     47 H8          44.2050    15.9970    31.5200 ha         1 YA6       0.139000
     48 H9          44.1050    18.2010    32.6400 ha         1 YA6       0.120000
     49 H10         42.6220    20.4220    35.2040 ha         1 YA6       0.117000
     50 H11         41.0150    20.4940    37.0680 ha         1 YA6       0.119000
     51 H12         38.6110    20.0260    36.6610 ha         1 YA6       0.121000
     52 H13         37.8270    19.6100    34.3630 ha         1 YA6       0.125000
     53 H14         37.5020    19.1320    27.7760 ha         1 YA6       0.115000
     54 H15         35.4470    17.8150    27.4430 ha         1 YA6       0.119000
     55 H16         34.7320    16.1700    29.1340 ha         1 YA6       0.129000
     56 H17         36.9830    14.2330    29.0320 ha         1 YA6       0.128000
     57 H18         36.6050    12.6630    27.1770 h4         1 YA6       0.016100
     58 H19         31.6540     8.1230    30.3220 hc         1 YA6       0.063700
     59 H20         30.6450     9.1620    29.3280 hc         1 YA6       0.063700
     60 H21         32.0640     8.3840    28.6220 hc         1 YA6       0.063700
     61 H22         33.8170    12.2440    31.1480 ha         1 YA6       0.173000
     62 H23         36.2440    16.7940    33.1500 hn         1 YA6       0.359000
     63 H24         42.9670    20.2060    32.9290 hn         1 YA6       0.456000
     64 H25         33.5100     9.9470    28.2270 hn         1 YA6       0.164000
     65 O26         38.1750    20.2700    31.8670 o          1 YA6      -0.535000
     66 C37         32.4670    10.0610    29.9700 c          1 YA6       0.612100
@<TRIPOS>BOND
     1     1    39 1   
     2     1    40 1   
     3     1    41 1   
     4     1    42 1   
     5     2    32 1   
     6     2    37 2   
     7     2    39 1   
     8     3     4 1   
     9     3    24 2   
    10     3    32 1   
    11     4     5 ar  
    12     4    23 ar  
    13     5     6 ar  
    14     5    43 1   
    15     6     7 1   
    16     6    21 ar  
    17     7    33 1   
    18     7    44 1   
    19     7    45 1   
    20     8     9 ar  
    21     8    13 ar  
    22     8    33 1   
    23     9    10 ar  
    24     9    46 1   
    25    10    11 ar  
    26    10    31 1   
    27    11    12 ar  
    28    11    47 1   
    29    12    13 ar  
    30    12    48 1   
    31    13    34 1   
    32    14    15 ar  
    33    14    19 ar  
    34    14    34 1   
    35    15    16 ar  
    36    15    49 1   
    37    16    17 ar  
    38    16    50 1   
    39    17    18 ar  
    40    17    51 1   
    41    18    19 ar  
    42    18    52 1   
    43    19    20 1   
    44    20    33 1   
    45    20    65 2   
    46    21    22 ar  
    47    21    53 1   
    48    22    23 ar  
    49    22    54 1   
    50    23    55 1   
    51    24    25 1   
    52    24    37 1   
    53    25    26 ar  
    54    25    30 ar  
    55    26    27 ar  
    56    26    56 1   
    57    27    35 ar  
    58    27    57 1   
    59    28    30 ar  
    60    28    35 ar  
    61    28    36 1   
    62    29    58 1   
    63    29    59 1   
    64    29    60 1   
    65    29    66 1   
    66    30    61 1   
    67    32    62 1   
    68    34    63 1   
    69    36    64 1   
    70    36    66 1   
    71    38    66 2   
@<TRIPOS>SUBSTRUCTURE
     1 YA6         1 TEMP              0 ****  ****    0 ROOT
