@<TRIPOS>MOLECULE
YA6
   66    71     1     0     0
SMALL
No Charge or Current Charge


@<TRIPOS>ATOM
      1 C01         35.4360    16.6740    35.9250 c3         1 YA6      -0.011100
      2 C03         35.1620    15.1030    33.5800 cc         1 YA6       0.500800
      3 C05         35.7570    15.8720    31.6310 cc         1 YA6      -0.123000
      4 C06         36.1780    16.7520    30.5460 ca         1 YA6      -0.019000
      5 C07         37.3840    17.4650    30.6580 ca         1 YA6      -0.100000
      6 C08         37.8030    18.3450    29.6340 ca         1 YA6      -0.092300
      7 C09         39.1190    19.1270    29.7160 c3         1 YA6       0.147300
      8 C11         40.9620    18.0930    31.0600 ca         1 YA6       0.087600
      9 C12         40.8210    16.8220    30.4520 ca         1 YA6      -0.170000
     10 C13         41.8190    15.8460    30.5820 ca         1 YA6       0.180000
     11 C15         42.9580    16.0930    31.3560 ca         1 YA6      -0.142000
     12 C16         43.0840    17.3200    32.0260 ca         1 YA6      -0.111000
     13 C17         42.0830    18.3000    31.9040 ca         1 YA6       0.217000
     14 C19         41.3740    19.6470    33.6670 ca         1 YA6       0.294000
     15 C20         41.9190    19.6940    34.9600 ca         1 YA6      -0.165000
     16 C21         41.0890    19.8810    36.0750 ca         1 YA6      -0.060000
     17 C22         39.7080    20.0330    35.8900 ca         1 YA6      -0.139000
     18 C23         39.1640    19.9920    34.5950 ca         1 YA6      -0.044000
     19 C24         39.9900    19.7810    33.4650 ca         1 YA6      -0.165600
     20 C25         39.3490    19.7980    32.0960 c          1 YA6       0.590600
     21 C27         36.9860    18.5050    28.4980 ca         1 YA6      -0.097000
     22 C28         35.7710    17.8080    28.3890 ca         1 YA6      -0.105000
     23 C29         35.3640    16.9390    29.4130 ca         1 YA6      -0.082000
     24 C30         35.3090    14.5620    31.5130 cd         1 YA6       0.305500
     25 C31         35.3130    13.6520    30.3360 ca         1 YA6      -0.045500
     26 C32         36.1090    13.8710    29.1890 ca         1 YA6      -0.190000
     27 C33         36.1000    12.9400    28.1390 ca         1 YA6       0.362900
     28 C35         34.6270    11.5730    29.2620 ca         1 YA6       0.470900
     29 C38         32.4660     8.4410    29.4360 c3         1 YA6      -0.180100
     30 C40         34.5810    12.4450    30.3660 ca         1 YA6      -0.148000
     31 F14         41.6720    14.6530    29.9670 f          1 YA6      -0.170000
     32 N04         35.6820    16.2010    32.9640 na         1 YA6      -0.296500
     33 N10         39.8580    19.0320    31.0040 n          1 YA6      -0.312000
     34 N18         42.2330    19.4740    32.6120 na         1 YA6      -0.921000
     35 N34         35.3680    11.8060    28.1640 nb         1 YA6      -0.738000
     36 N36         33.9420    10.3570    29.1470 ns         1 YA6      -0.324900
     37 N41         34.9320    14.0960    32.7650 nd         1 YA6      -0.635000
     38 O39         32.3970    10.3890    30.8430 o          1 YA6      -0.574100
     39 S02         34.8670    15.0230    35.3130 ss         1 YA6      -0.276300
     40 H1          35.2980    16.7270    37.0120 h1         1 YA6       0.068033
     41 H2          36.5000    16.8140    35.6960 h1         1 YA6       0.068033
     42 H3          34.8490    17.4730    35.4540 h1         1 YA6       0.068033
     43 H4          37.9960    17.3170    31.5430 ha         1 YA6       0.113000
     44 H5          39.7770    18.7870    28.9050 h1         1 YA6       0.071200
     45 H6          38.9130    20.1850    29.5060 h1         1 YA6       0.071200
     46 H7          39.9430    16.5770    29.8640 ha         1 YA6       0.148000
     47 H8          43.7260    15.3290    31.4550 ha         1 YA6       0.139000
     48 H9          43.9510    17.5050    32.6550 ha         1 YA6       0.120000
     49 H10         42.9910    19.5830    35.1010 ha         1 YA6       0.117000
     50 H11         41.5150    19.9150    37.0760 ha         1 YA6       0.119000
     51 H12         39.0580    20.1870    36.7480 ha         1 YA6       0.121000
     52 H13         38.0900    20.1190    34.4730 ha         1 YA6       0.125000
     53 H14         37.2910    19.1770    27.6980 ha         1 YA6       0.115000
     54 H15         35.1430    17.9450    27.5120 ha         1 YA6       0.119000
     55 H16         34.4170    16.4100    29.3280 ha         1 YA6       0.129000
     56 H17         36.7680    14.7270    29.1050 ha         1 YA6       0.128000
     57 H18         36.7130    13.1010    27.2520 h4         1 YA6       0.016100
     58 H19         31.6470     8.0410    30.0450 hc         1 YA6       0.063700
     59 H20         32.1960     8.4880    28.3750 hc         1 YA6       0.063700
     60 H21         33.3300     7.7670    29.4260 hc         1 YA6       0.063700
     61 H22         33.9840    12.1970    31.2350 ha         1 YA6       0.173000
     62 H23         35.9210    17.0810    33.3980 hn         1 YA6       0.359000
     63 H24         43.0420    20.0770    32.4840 hn         1 YA6       0.456000
     64 H25         34.2520     9.7890    28.3720 hn         1 YA6       0.164000
     65 O26         38.3580    20.5030    31.9360 o          1 YA6      -0.535000
     66 C37         32.9190     9.8220    29.8950 c          1 YA6       0.612100
@<TRIPOS>BOND
     1     1    39 1   
     2     1    40 1   
     3     1    41 1   
     4     1    42 1   
     5     2    32 1   
     6     2    37 2   
     7     2    39 1   
     8     3     4 1   
     9     3    24 2   
    10     3    32 1   
    11     4     5 ar  
    12     4    23 ar  
    13     5     6 ar  
    14     5    43 1   
    15     6     7 1   
    16     6    21 ar  
    17     7    33 1   
    18     7    44 1   
    19     7    45 1   
    20     8     9 ar  
    21     8    13 ar  
    22     8    33 1   
    23     9    10 ar  
    24     9    46 1   
    25    10    11 ar  
    26    10    31 1   
    27    11    12 ar  
    28    11    47 1   
    29    12    13 ar  
    30    12    48 1   
    31    13    34 1   
    32    14    15 ar  
    33    14    19 ar  
    34    14    34 1   
    35    15    16 ar  
    36    15    49 1   
    37    16    17 ar  
    38    16    50 1   
    39    17    18 ar  
    40    17    51 1   
    41    18    19 ar  
    42    18    52 1   
    43    19    20 1   
    44    20    33 1   
    45    20    65 2   
    46    21    22 ar  
    47    21    53 1   
    48    22    23 ar  
    49    22    54 1   
    50    23    55 1   
    51    24    25 1   
    52    24    37 1   
    53    25    26 ar  
    54    25    30 ar  
    55    26    27 ar  
    56    26    56 1   
    57    27    35 ar  
    58    27    57 1   
    59    28    30 ar  
    60    28    35 ar  
    61    28    36 1   
    62    29    58 1   
    63    29    59 1   
    64    29    60 1   
    65    29    66 1   
    66    30    61 1   
    67    32    62 1   
    68    34    63 1   
    69    36    64 1   
    70    36    66 1   
    71    38    66 2   
@<TRIPOS>SUBSTRUCTURE
     1 YA6         1 TEMP              0 ****  ****    0 ROOT
