@<TRIPOS>MOLECULE
YA7
   66    70     1     0     0
SMALL
abcg2


@<TRIPOS>ATOM
      1 C1          30.4080     8.4210    30.4120 c3         1 YA7       0.164900
      2 C3          32.5770     9.2850    30.9090 ca         1 YA7       0.557300
      3 C5          32.7890    11.2230    32.1030 ca         1 YA7       0.362900
      4 C6          34.1730    11.2120    32.0140 cp         1 YA7      -0.086000
      5 C7          35.0140    12.2610    32.6320 cp         1 YA7      -0.023000
      6 C8          36.2250    11.9120    33.2410 ca         1 YA7      -0.064000
      7 C11         38.4680    11.1450    35.0530 ca         1 YA7      -0.207000
      8 C12         39.6810    10.7960    35.6110 ca         1 YA7       0.383900
      9 N13         40.7640    11.5770    35.6110 nb         1 YA7      -0.740000
     10 C16         41.7570    14.9830    34.7510 c6         1 YA7       0.180300
     11 C17         43.1040    15.5390    34.3040 c6         1 YA7       0.159300
     12 C19         43.0770    17.0480    34.1880 c3         1 YA7      -0.088100
     13 O20         44.1300    15.1870    35.2320 os         1 YA7      -0.463000
     14 C21         44.2530    13.7680    35.3660 c6         1 YA7       0.159300
     15 C23         45.4040    13.4870    36.3080 c3         1 YA7      -0.088100
     16 C24         42.9480    13.1680    35.8650 c6         1 YA7       0.180300
     17 C27         35.5500    14.5530    33.1780 ca         1 YA7      -0.161600
     18 C31         33.5060    14.3440    32.0230 c5         1 YA7       0.147300
     19 C32         34.6830    13.6180    32.6190 ca         1 YA7      -0.072300
     20 C33         34.7680    10.1360    31.3320 ca         1 YA7      -0.094000
     21 C34         33.9790     9.1540    30.7700 ca         1 YA7       0.230000
     22 C37         35.9290     9.1050    28.0600 c3         1 YA7      -0.387100
     23 O2          31.8380     8.3170    30.3320 os         1 YA7      -0.483300
     24 N4          32.0110    10.2760    31.5580 nb         1 YA7      -0.728000
     25 C9          37.0950    12.8480    33.8150 cp         1 YA7      -0.044000
     26 C10         38.3630    12.4010    34.4370 cp         1 YA7       0.034000
     27 C14         40.6850    12.7810    35.0210 ca         1 YA7       0.612900
     28 N15         41.8340    13.5480    34.9990 nh         1 YA7      -0.769300
     29 C25         39.4830    13.2190    34.4260 ca         1 YA7      -0.213000
     30 C26         36.7450    14.2000    33.7790 ca         1 YA7      -0.023000
     31 C28         34.9910    15.9160    32.9760 c          1 YA7       0.576600
     32 N30         33.8440    15.7370    32.2770 ns         1 YA7      -0.520900
     33 N35         34.4500     8.0170    30.0880 nu         1 YA7      -0.898100
     34 S36         35.9130     7.8750    29.3360 s6         1 YA7       1.242100
     35 O38         36.9410     8.1980    30.2940 o          1 YA7      -0.533000
     36 O39         35.8950     6.5640    28.7360 o          1 YA7      -0.533000
     37 H1          30.0290     7.5620    29.8660 h1         1 YA7       0.052367
     38 H2          30.0810     8.3880    31.4510 h1         1 YA7       0.052367
     39 H3          30.0670     9.3480    29.9510 h1         1 YA7       0.052367
     40 H4          32.2700    11.9970    32.6500 h4         1 YA7       0.027100
     41 H5          36.5050    10.8680    33.2610 ha         1 YA7       0.131000
     42 H6          37.6250    10.4710    35.1180 ha         1 YA7       0.126000
     43 H7          39.7950     9.8340    36.1020 h4         1 YA7       0.019100
     44 H8          41.4280    15.5120    35.6580 h1         1 YA7       0.056700
     45 H9          41.0420    15.1910    33.9610 h1         1 YA7       0.056700
     46 H10         43.3530    15.0910    33.3310 h1         1 YA7       0.043700
     47 H11         42.3280    17.3590    33.4570 hc         1 YA7       0.047367
     48 H12         42.8320    17.5010    35.1510 hc         1 YA7       0.047367
     49 H13         44.0500    17.4200    33.8640 hc         1 YA7       0.047367
     50 H14         44.4700    13.3490    34.3730 h1         1 YA7       0.043700
     51 H15         45.5580    12.4110    36.4070 hc         1 YA7       0.047367
     52 H16         46.3220    13.9350    35.9270 hc         1 YA7       0.047367
     53 H17         45.1980    13.9000    37.2980 hc         1 YA7       0.047367
     54 H18         43.0300    12.0850    35.8800 h1         1 YA7       0.056700
     55 H19         42.7660    13.5070    36.8950 h1         1 YA7       0.056700
     56 H20         32.5620    14.0890    32.5090 h1         1 YA7       0.061700
     57 H21         35.8420    10.0810    31.2410 ha         1 YA7       0.153000
     58 H22         36.8970     9.0390    27.5670 h1         1 YA7       0.105033
     59 H23         35.1200     8.8880    27.3660 h1         1 YA7       0.105033
     60 H24         35.8030    10.0850    28.5180 h1         1 YA7       0.105033
     61 H25         39.4280    14.1780    33.9370 ha         1 YA7       0.123000
     62 H26         37.3790    14.9600    34.2170 ha         1 YA7       0.141000
     63 H27         33.7260     7.4720    29.6320 hn         1 YA7       0.520000
     64 H28         33.3980    14.1410    30.9530 h1         1 YA7       0.061700
     65 H29         33.2300    16.5010    32.0410 hn         1 YA7       0.336500
     66 O29         35.4610    16.9890    33.3490 o          1 YA7      -0.545000
@<TRIPOS>BOND
     1     1    23 1   
     2     1    37 1   
     3     1    38 1   
     4     1    39 1   
     5     2    21 ar  
     6     2    23 1   
     7     2    24 ar  
     8     3     4 ar  
     9     3    24 ar  
    10     3    40 1   
    11     4     5 1   
    12     4    20 ar  
    13     5     6 ar  
    14     5    19 ar  
    15     6    25 ar  
    16     6    41 1   
    17     7     8 ar  
    18     7    26 ar  
    19     7    42 1   
    20     8     9 ar  
    21     8    43 1   
    22     9    27 ar  
    23    10    11 1   
    24    10    28 1   
    25    10    44 1   
    26    10    45 1   
    27    11    12 1   
    28    11    13 1   
    29    11    46 1   
    30    12    47 1   
    31    12    48 1   
    32    12    49 1   
    33    13    14 1   
    34    14    15 1   
    35    14    16 1   
    36    14    50 1   
    37    15    51 1   
    38    15    52 1   
    39    15    53 1   
    40    16    28 1   
    41    16    54 1   
    42    16    55 1   
    43    17    19 ar  
    44    17    30 ar  
    45    17    31 1   
    46    18    19 1   
    47    18    32 1   
    48    18    56 1   
    49    18    64 1   
    50    20    21 ar  
    51    20    57 1   
    52    21    33 1   
    53    22    34 1   
    54    22    58 1   
    55    22    59 1   
    56    22    60 1   
    57    25    26 1   
    58    25    30 ar  
    59    26    29 ar  
    60    27    28 1   
    61    27    29 ar  
    62    29    61 1   
    63    30    62 1   
    64    31    32 1   
    65    31    66 2   
    66    32    65 1   
    67    33    34 1   
    68    33    63 1   
    69    34    35 2   
    70    34    36 2   
@<TRIPOS>SUBSTRUCTURE
     1 YA7         1 TEMP              0 ****  ****    0 ROOT
