@<TRIPOS>MOLECULE
YA7
   66    70     1     0     0
SMALL
No Charge or Current Charge


@<TRIPOS>ATOM
      1 C1          30.3290     8.1310    30.7900 c3         1 YA7       0.164900
      2 C3          32.5820     9.1000    31.0340 ca         1 YA7       0.557300
      3 C5          32.8600    11.1040    32.1620 ca         1 YA7       0.362900
      4 C6          34.2610    11.1070    31.9520 cp         1 YA7      -0.086000
      5 C7          35.1340    12.1960    32.4820 cp         1 YA7      -0.023000
      6 C8          36.2850    11.9040    33.2630 ca         1 YA7      -0.064000
      7 C11         38.3580    11.4450    35.4680 ca         1 YA7      -0.207000
      8 C12         39.5050    11.1420    36.2140 ca         1 YA7       0.383900
      9 N13         40.6380    11.8710    36.1520 nb         1 YA7      -0.740000
     10 C16         41.8370    15.1610    35.3860 c6         1 YA7       0.180300
     11 C17         43.1550    15.8070    34.8500 c6         1 YA7       0.159300
     12 C19         43.2160    17.3310    35.1120 c3         1 YA7      -0.088100
     13 O20         44.3090    15.2200    35.4920 os         1 YA7      -0.463000
     14 C21         44.4050    13.7960    35.2630 c6         1 YA7       0.159300
     15 C23         45.7100    13.3130    35.9390 c3         1 YA7      -0.088100
     16 C24         43.1400    13.0600    35.8110 c6         1 YA7       0.180300
     17 C27         35.7330    14.5650    32.6970 ca         1 YA7      -0.161600
     18 C31         33.8000    14.1270    31.3840 c5         1 YA7       0.147300
     19 C32         34.9120    13.5680    32.2390 ca         1 YA7      -0.072300
     20 C33         34.8210    10.0150    31.2470 ca         1 YA7      -0.094000
     21 C34         33.9860     8.9920    30.7630 ca         1 YA7       0.230000
     22 C37         34.8260     9.0940    27.6300 c3         1 YA7      -0.387100
     23 O2          31.7520     8.0980    30.5620 os         1 YA7      -0.483300
     24 N4          32.0320    10.1330    31.7180 nb         1 YA7      -0.728000
     25 C9          37.1560    12.9170    33.7750 cp         1 YA7      -0.044000
     26 C10         38.3530    12.5570    34.5980 cp         1 YA7       0.034000
     27 C14         40.6530    12.9390    35.3360 ca         1 YA7       0.612900
     28 N15         41.8600    13.6640    35.3040 nh         1 YA7      -0.769300
     29 C25         39.5490    13.3070    34.5480 ca         1 YA7      -0.213000
     30 C26         36.8620    14.2780    33.4740 ca         1 YA7      -0.023000
     31 C28         35.2070    15.8550    32.1920 c          1 YA7       0.576600
     32 N30         34.0890    15.5780    31.4260 ns         1 YA7      -0.520900
     33 N35         34.5180     7.8930    30.0480 nu         1 YA7      -0.898100
     34 S36         35.5650     7.9440    28.7660 s6         1 YA7       1.242100
     35 O38         36.8250     8.4890    29.2710 o          1 YA7      -0.533000
     36 O39         35.5090     6.6030    28.1850 o          1 YA7      -0.533000
     37 H1          29.8480     7.2530    30.3410 h1         1 YA7       0.052367
     38 H2          30.1030     8.1280    31.8650 h1         1 YA7       0.052367
     39 H3          29.8800     9.0280    30.3430 h1         1 YA7       0.052367
     40 H4          32.3870    11.9070    32.7270 h4         1 YA7       0.027100
     41 H5          36.5120    10.8620    33.4710 ha         1 YA7       0.131000
     42 H6          37.4770    10.8210    35.5810 ha         1 YA7       0.126000
     43 H7          39.5160    10.2860    36.8890 h4         1 YA7       0.019100
     44 H8          41.6920    15.4690    36.4320 h1         1 YA7       0.056700
     45 H9          40.9990    15.5790    34.8120 h1         1 YA7       0.056700
     46 H10         43.2280    15.6360    33.7660 h1         1 YA7       0.043700
     47 H11         42.3820    17.8470    34.6210 hc         1 YA7       0.047367
     48 H12         43.1640    17.5540    36.1840 hc         1 YA7       0.047367
     49 H13         44.1460    17.7600    34.7220 hc         1 YA7       0.047367
     50 H14         44.4860    13.6180    34.1810 h1         1 YA7       0.043700
     51 H15         45.8620    12.2400    35.7740 hc         1 YA7       0.047367
     52 H16         46.5810    13.8390    35.5320 hc         1 YA7       0.047367
     53 H17         45.6850    13.4850    37.0220 hc         1 YA7       0.047367
     54 H18         43.2110    12.0040    35.5130 h1         1 YA7       0.056700
     55 H19         43.1570    13.0920    36.9110 h1         1 YA7       0.056700
     56 H20         32.8120    13.9030    31.8070 h1         1 YA7       0.061700
     57 H21         35.8940     9.9750    31.0890 ha         1 YA7       0.153000
     58 H22         35.4710     9.1390    26.7470 h1         1 YA7       0.105033
     59 H23         33.8300     8.7190    27.3760 h1         1 YA7       0.105033
     60 H24         34.7730    10.0670    28.1300 h1         1 YA7       0.105033
     61 H25         39.6310    14.1530    33.8760 ha         1 YA7       0.123000
     62 H26         37.4930    15.0860    33.8370 ha         1 YA7       0.141000
     63 H27         33.8390     7.1980    29.7590 hn         1 YA7       0.520000
     64 H28         33.8440    13.7250    30.3630 h1         1 YA7       0.061700
     65 H29         33.5700    16.3270    30.9820 hn         1 YA7       0.336500
     66 O29         35.6640    16.9670    32.3980 o          1 YA7      -0.545000
@<TRIPOS>BOND
     1     1    23 1   
     2     1    37 1   
     3     1    38 1   
     4     1    39 1   
     5     2    21 ar  
     6     2    23 1   
     7     2    24 ar  
     8     3     4 ar  
     9     3    24 ar  
    10     3    40 1   
    11     4     5 1   
    12     4    20 ar  
    13     5     6 ar  
    14     5    19 ar  
    15     6    25 ar  
    16     6    41 1   
    17     7     8 ar  
    18     7    26 ar  
    19     7    42 1   
    20     8     9 ar  
    21     8    43 1   
    22     9    27 ar  
    23    10    11 1   
    24    10    28 1   
    25    10    44 1   
    26    10    45 1   
    27    11    12 1   
    28    11    13 1   
    29    11    46 1   
    30    12    47 1   
    31    12    48 1   
    32    12    49 1   
    33    13    14 1   
    34    14    15 1   
    35    14    16 1   
    36    14    50 1   
    37    15    51 1   
    38    15    52 1   
    39    15    53 1   
    40    16    28 1   
    41    16    54 1   
    42    16    55 1   
    43    17    19 ar  
    44    17    30 ar  
    45    17    31 1   
    46    18    19 1   
    47    18    32 1   
    48    18    56 1   
    49    18    64 1   
    50    20    21 ar  
    51    20    57 1   
    52    21    33 1   
    53    22    34 1   
    54    22    58 1   
    55    22    59 1   
    56    22    60 1   
    57    25    26 1   
    58    25    30 ar  
    59    26    29 ar  
    60    27    28 1   
    61    27    29 ar  
    62    29    61 1   
    63    30    62 1   
    64    31    32 1   
    65    31    66 2   
    66    32    65 1   
    67    33    34 1   
    68    33    63 1   
    69    34    35 2   
    70    34    36 2   
@<TRIPOS>SUBSTRUCTURE
     1 YA7         1 TEMP              0 ****  ****    0 ROOT
