@<TRIPOS>MOLECULE
YAA
   67    72     1     0     0
SMALL
abcg2


@<TRIPOS>ATOM
      1 C10         25.4420    13.3750    12.2450 ca         1 YAA      -0.003000
      2 C11         24.2840    13.9540    11.7340 ca         1 YAA      -0.153000
      3 C02         29.8780     7.3940    14.0550 c          1 YAA       0.612100
      4 C03         30.6710     6.3320    14.7740 c3         1 YAA      -0.182100
      5 C05         27.8500     8.8000    14.4440 ca         1 YAA       0.473900
      6 C06         27.8300     9.5150    13.2480 ca         1 YAA      -0.150000
      7 C07         26.7950    10.4190    13.0300 ca         1 YAA      -0.045500
      8 C08         26.7510    11.1550    11.7670 cc         1 YAA       0.291500
      9 C09         26.1560    12.3660    11.4620 cd         1 YAA      -0.113000
     10 C12         23.6130    14.9490    12.4390 ca         1 YAA      -0.031000
     11 C14         22.0250    16.7640    11.9410 c          1 YAA       0.614700
     12 C15         20.7350    17.0230    11.2250 ca         1 YAA      -0.181600
     13 C16         20.6240    18.0840    10.3210 ca         1 YAA       0.111600
     14 C18         21.9860    20.1070     9.8040 c          1 YAA       0.600600
     15 C19         20.8300    21.0410     9.8080 ca         1 YAA      -0.169600
     16 C20         21.0790    22.3500    10.2280 ca         1 YAA      -0.032000
     17 C21         20.1200    23.3370    10.1100 ca         1 YAA      -0.142000
     18 C22         18.8950    23.0260     9.5310 ca         1 YAA      -0.059000
     19 C23         18.6260    21.7350     9.1200 ca         1 YAA      -0.175000
     20 C24         19.5790    20.7250     9.2660 ca         1 YAA       0.305000
     21 C27         19.3840    18.3760     9.7570 ca         1 YAA       0.241000
     22 C28         18.2760    17.6020    10.0860 ca         1 YAA      -0.118000
     23 C29         18.3980    16.5250    10.9470 ca         1 YAA      -0.109000
     24 C30         19.6260    16.2370    11.5190 ca         1 YAA      -0.084000
     25 C32         24.0990    15.3610    13.6780 ca         1 YAA      -0.104000
     26 C33         25.2570    14.7860    14.1800 ca         1 YAA      -0.089000
     27 C34         25.9360    13.8060    13.4750 ca         1 YAA      -0.098000
     28 C36         27.1060    11.4820     9.6840 cd         1 YAA       0.478800
     29 C38         26.1260    11.1090     7.1400 c3         1 YAA       0.014900
     30 C40         25.8170    10.5580    14.0160 ca         1 YAA      -0.193000
     31 C41         25.9430     9.8060    15.1690 ca         1 YAA       0.363900
     32 N13         22.4410    15.4730    11.8730 ns         1 YAA      -0.153000
     33 N17         21.7710    18.7670     9.8960 ns         1 YAA      -0.399100
     34 N25         19.2730    19.4290     8.8390 na         1 YAA      -0.935000
     35 N35         26.3980    12.5430    10.1330 na         1 YAA      -0.275500
     36 N39         27.3340    10.6320    10.6480 nc         1 YAA      -0.607000
     37 N42         26.9290     8.9490    15.3900 nb         1 YAA      -0.737000
     38 O01         30.1620     7.7910    12.9420 o          1 YAA      -0.566100
     39 O26         23.1240    20.5320     9.6940 o          1 YAA      -0.539000
     40 O31         22.6170    17.6440    12.5340 o          1 YAA      -0.555100
     41 S37         27.6860    11.3420     8.0430 ss         1 YAA      -0.321300
     42 H1          23.8880    13.6260    10.7790 ha         1 YAA       0.109000
     43 H2          31.4740     5.9700    14.1380 hc         1 YAA       0.065033
     44 H3          31.1020     6.7290    15.6940 hc         1 YAA       0.065033
     45 H4          30.0330     5.4910    15.0500 hc         1 YAA       0.065033
     46 H5          28.5970     9.3780    12.5040 ha         1 YAA       0.174000
     47 H6          22.0480    22.5920    10.6430 ha         1 YAA       0.138000
     48 H7          20.3300    24.3430    10.4480 ha         1 YAA       0.123000
     49 H8          18.1380    23.7910     9.4110 ha         1 YAA       0.116000
     50 H9          17.6620    21.4950     8.6860 ha         1 YAA       0.113000
     51 H10         17.3150    17.8430     9.6470 ha         1 YAA       0.119000
     52 H11         17.5310    15.9230    11.1860 ha         1 YAA       0.124000
     53 H12         19.7170    15.4150    12.2170 ha         1 YAA       0.125000
     54 H13         23.5800    16.1090    14.2580 ha         1 YAA       0.141000
     55 H14         25.6360    15.1130    15.1390 ha         1 YAA       0.124000
     56 H15         26.8500    13.3840    13.8730 ha         1 YAA       0.133000
     57 H16         26.3940    10.9870     6.0930 h1         1 YAA       0.065700
     58 H17         25.6120    10.2140     7.4820 h1         1 YAA       0.065700
     59 H18         25.4780    11.9760     7.2390 h1         1 YAA       0.065700
     60 H19         24.9680    11.2140    13.8930 ha         1 YAA       0.128000
     61 H20         25.2020     9.8950    15.9550 h4         1 YAA       0.016100
     62 H21         28.6730     7.4550    15.6940 hn         1 YAA       0.163000
     63 H22         21.9630    14.8750    11.2140 hn         1 YAA       0.157000
     64 H23         22.6280    18.2320     9.8720 hn         1 YAA       0.325500
     65 H24         18.4060    19.3930     8.3220 hn         1 YAA       0.461000
     66 H25         26.1520    13.3600     9.5920 hn         1 YAA       0.362000
     67 N04         28.8200     7.8600    14.7800 ns         1 YAA      -0.328900
@<TRIPOS>BOND
     1     1     2 ar  
     2     1     9 1   
     3     1    27 ar  
     4     2    10 ar  
     5     2    42 1   
     6     3     4 1   
     7     3    38 2   
     8     3    67 1   
     9     4    43 1   
    10     4    44 1   
    11     4    45 1   
    12     5     6 ar  
    13     5    37 ar  
    14     5    67 1   
    15     6     7 ar  
    16     6    46 1   
    17     7     8 1   
    18     7    30 ar  
    19     8     9 2   
    20     8    36 1   
    21     9    35 1   
    22    10    25 ar  
    23    10    32 1   
    24    11    12 1   
    25    11    32 1   
    26    11    40 2   
    27    12    13 ar  
    28    12    24 ar  
    29    13    21 ar  
    30    13    33 1   
    31    14    15 1   
    32    14    33 1   
    33    14    39 2   
    34    15    16 ar  
    35    15    20 ar  
    36    16    17 ar  
    37    16    47 1   
    38    17    18 ar  
    39    17    48 1   
    40    18    19 ar  
    41    18    49 1   
    42    19    20 ar  
    43    19    50 1   
    44    20    34 1   
    45    21    22 ar  
    46    21    34 1   
    47    22    23 ar  
    48    22    51 1   
    49    23    24 ar  
    50    23    52 1   
    51    24    53 1   
    52    25    26 ar  
    53    25    54 1   
    54    26    27 ar  
    55    26    55 1   
    56    27    56 1   
    57    28    35 1   
    58    28    36 2   
    59    28    41 1   
    60    29    41 1   
    61    29    57 1   
    62    29    58 1   
    63    29    59 1   
    64    30    31 ar  
    65    30    60 1   
    66    31    37 ar  
    67    31    61 1   
    68    32    63 1   
    69    33    64 1   
    70    34    65 1   
    71    35    66 1   
    72    62    67 1   
@<TRIPOS>SUBSTRUCTURE
     1 YAA         1 TEMP              0 ****  ****    0 ROOT
