@<TRIPOS>MOLECULE
YAA
   67    72     1     0     0
SMALL
No Charge or Current Charge


@<TRIPOS>ATOM
      1 C10         25.3550    12.7350    11.6830 ca         1 YAA      -0.003000
      2 C11         24.4620    13.6270    11.0500 ca         1 YAA      -0.153000
      3 C02         30.2590     8.1800    14.6360 c          1 YAA       0.612100
      4 C03         31.3320     7.5360    15.5050 c3         1 YAA      -0.182100
      5 C05         28.0710     9.4100    14.9110 ca         1 YAA       0.473900
      6 C06         27.5840     9.4430    13.5900 ca         1 YAA      -0.150000
      7 C07         26.4110    10.1690    13.3070 ca         1 YAA      -0.045500
      8 C08         25.8320    10.1710    11.9600 cc         1 YAA       0.291500
      9 C09         25.3010    11.2930    11.3420 cd         1 YAA      -0.113000
     10 C12         24.4760    15.0080    11.3270 ca         1 YAA      -0.031000
     11 C14         23.3160    17.1940    10.6070 c          1 YAA       0.614700
     12 C15         22.1540    17.6540     9.7310 ca         1 YAA      -0.181600
     13 C16         21.5940    18.9610     9.8500 ca         1 YAA       0.111600
     14 C18         21.5370    20.8870    11.5360 c          1 YAA       0.600600
     15 C19         20.0830    21.2370    11.3600 ca         1 YAA      -0.169600
     16 C20         19.3890    21.7870    12.4640 ca         1 YAA      -0.032000
     17 C21         18.0330    22.1360    12.3590 ca         1 YAA      -0.142000
     18 C22         17.3540    21.9570    11.1460 ca         1 YAA      -0.059000
     19 C23         18.0420    21.4360    10.0400 ca         1 YAA      -0.175000
     20 C24         19.3950    21.0780    10.1430 ca         1 YAA       0.305000
     21 C27         20.5440    19.3600     8.9820 ca         1 YAA       0.241000
     22 C28         20.0330    18.4670     8.0310 ca         1 YAA      -0.118000
     23 C29         20.5560    17.1730     7.9270 ca         1 YAA      -0.109000
     24 C30         21.6070    16.7710     8.7620 ca         1 YAA      -0.084000
     25 C32         25.4120    15.5090    12.2550 ca         1 YAA      -0.104000
     26 C33         26.3220    14.6390    12.8740 ca         1 YAA      -0.089000
     27 C34         26.3000    13.2650    12.5870 ca         1 YAA      -0.098000
     28 C36         25.0890     9.4430    10.1350 cd         1 YAA       0.478800
     29 C38         23.8130     9.5090     7.5760 c3         1 YAA       0.014900
     30 C40         25.7520    10.7730    14.3960 ca         1 YAA      -0.193000
     31 C41         26.3070    10.6830    15.6820 ca         1 YAA       0.363900
     32 N13         23.5220    15.8190    10.6500 ns         1 YAA      -0.153000
     33 N17         22.1070    19.8570    10.8220 ns         1 YAA      -0.399100
     34 N25         20.0270    20.6470     8.9990 na         1 YAA      -0.935000
     35 N35         24.8010    10.7890    10.1460 na         1 YAA      -0.275500
     36 N39         25.7140     9.0330    11.2140 nc         1 YAA      -0.607000
     37 N42         27.4530    10.0150    15.9430 nb         1 YAA      -0.737000
     38 O01         30.3360     8.1870    13.4160 o          1 YAA      -0.566100
     39 O26         22.2320    21.4890    12.3420 o          1 YAA      -0.539000
     40 O31         24.0380    17.9890    11.1970 o          1 YAA      -0.555100
     41 S37         24.6670     8.3920     8.7800 ss         1 YAA      -0.321300
     42 H1          23.7290    13.2440    10.3440 ha         1 YAA       0.109000
     43 H2          32.1450     7.0970    14.9160 hc         1 YAA       0.065033
     44 H3          31.7050     8.2780    16.2200 hc         1 YAA       0.065033
     45 H4          30.8620     6.7960    16.1620 hc         1 YAA       0.065033
     46 H5          28.0950     8.9180    12.7910 ha         1 YAA       0.174000
     47 H6          19.8990    21.9330    13.4150 ha         1 YAA       0.138000
     48 H7          17.5090    22.5480    13.2190 ha         1 YAA       0.123000
     49 H8          16.3040    22.2310    11.0600 ha         1 YAA       0.116000
     50 H9          17.5210    21.3170     9.0940 ha         1 YAA       0.113000
     51 H10         19.2320    18.7800     7.3660 ha         1 YAA       0.119000
     52 H11         20.1570    16.4850     7.1850 ha         1 YAA       0.124000
     53 H12         22.0010    15.7660     8.6220 ha         1 YAA       0.125000
     54 H13         25.4570    16.5630    12.5100 ha         1 YAA       0.141000
     55 H14         27.0560    15.0320    13.5750 ha         1 YAA       0.124000
     56 H15         27.0500    12.6320    13.0490 ha         1 YAA       0.133000
     57 H16         23.5080     8.9300     6.6950 h1         1 YAA       0.065700
     58 H17         22.9200     9.9480     8.0380 h1         1 YAA       0.065700
     59 H18         24.4940    10.3080     7.2560 h1         1 YAA       0.065700
     60 H19         24.8160    11.3070    14.2540 ha         1 YAA       0.128000
     61 H20         25.8140    11.1530    16.5330 h4         1 YAA       0.016100
     62 H21         29.3090     8.6930    16.3480 hn         1 YAA       0.163000
     63 H22         22.8550    15.2880    10.1080 hn         1 YAA       0.157000
     64 H23         23.0620    19.6600    11.0980 hn         1 YAA       0.325500
     65 H24         19.9690    21.1930     8.1430 hn         1 YAA       0.461000
     66 H25         24.3620    11.3060     9.4000 hn         1 YAA       0.362000
     67 N04         29.2260     8.7480    15.3430 ns         1 YAA      -0.328900
@<TRIPOS>BOND
     1     1     2 ar  
     2     1     9 1   
     3     1    27 ar  
     4     2    10 ar  
     5     2    42 1   
     6     3     4 1   
     7     3    38 2   
     8     3    67 1   
     9     4    43 1   
    10     4    44 1   
    11     4    45 1   
    12     5     6 ar  
    13     5    37 ar  
    14     5    67 1   
    15     6     7 ar  
    16     6    46 1   
    17     7     8 1   
    18     7    30 ar  
    19     8     9 2   
    20     8    36 1   
    21     9    35 1   
    22    10    25 ar  
    23    10    32 1   
    24    11    12 1   
    25    11    32 1   
    26    11    40 2   
    27    12    13 ar  
    28    12    24 ar  
    29    13    21 ar  
    30    13    33 1   
    31    14    15 1   
    32    14    33 1   
    33    14    39 2   
    34    15    16 ar  
    35    15    20 ar  
    36    16    17 ar  
    37    16    47 1   
    38    17    18 ar  
    39    17    48 1   
    40    18    19 ar  
    41    18    49 1   
    42    19    20 ar  
    43    19    50 1   
    44    20    34 1   
    45    21    22 ar  
    46    21    34 1   
    47    22    23 ar  
    48    22    51 1   
    49    23    24 ar  
    50    23    52 1   
    51    24    53 1   
    52    25    26 ar  
    53    25    54 1   
    54    26    27 ar  
    55    26    55 1   
    56    27    56 1   
    57    28    35 1   
    58    28    36 2   
    59    28    41 1   
    60    29    41 1   
    61    29    57 1   
    62    29    58 1   
    63    29    59 1   
    64    30    31 ar  
    65    30    60 1   
    66    31    37 ar  
    67    31    61 1   
    68    32    63 1   
    69    33    64 1   
    70    34    65 1   
    71    35    66 1   
    72    62    67 1   
@<TRIPOS>SUBSTRUCTURE
     1 YAA         1 TEMP              0 ****  ****    0 ROOT
