@<TRIPOS>MOLECULE
YAC
   26    26     1     0     0
SMALL
bcc


@<TRIPOS>ATOM
      1 C21         -4.3670     0.0160    -0.7010 c          1 YAC       0.929600
      2 O2          -4.6690     0.8100     0.2100 o          1 YAC      -0.841300
      3 C22         -3.1190    -0.8660    -0.4970 c3         1 YAC      -0.206400
      4 C23         -2.1970    -0.4190     0.6340 c3         1 YAC      -0.054200
      5 C24         -1.0840    -1.3910     0.8240 c2         1 YAC      -0.026200
      6 C25          0.2400    -1.1930     0.8540 ce         1 YAC      -0.330200
      7 C26          0.9240     0.1110     0.7790 c          1 YAC       0.588900
      8 O3           0.4120     1.1460     1.1700 o          1 YAC      -0.525100
      9 C27          2.3080     0.1310     0.2210 ca         1 YAC      -0.152600
     10 C28          2.7920    -0.9010    -0.5830 ca         1 YAC      -0.085000
     11 C29          4.0700    -0.8350    -1.1180 ca         1 YAC      -0.149000
     12 C30          4.8830     0.2560    -0.8430 ca         1 YAC      -0.120000
     13 C31          4.4100     1.2880    -0.0400 ca         1 YAC      -0.149000
     14 C32          3.1280     1.2300     0.4810 ca         1 YAC      -0.085000
     15 H29         -3.4640    -1.8900    -0.3090 hc         1 YAC       0.017200
     16 H30         -2.5610    -0.9170    -1.4360 hc         1 YAC       0.017200
     17 H31         -1.8310     0.5890     0.4560 hc         1 YAC       0.072700
     18 H32         -2.7740    -0.3810     1.5630 hc         1 YAC       0.072700
     19 H33         -1.4060    -2.4260     0.9090 ha         1 YAC       0.100000
     20 H34          0.8770    -2.0650     0.9390 ha         1 YAC       0.113000
     21 H35          2.1680    -1.7540    -0.8150 ha         1 YAC       0.143500
     22 H36          4.4310    -1.6360    -1.7490 ha         1 YAC       0.124000
     23 H37          5.8830     0.3040    -1.2530 ha         1 YAC       0.120000
     24 H38          5.0440     2.1370     0.1800 ha         1 YAC       0.124000
     25 H39          2.7640     2.0380     1.1020 ha         1 YAC       0.143500
     26 OXT         -4.9900    -0.1620    -1.7680 o          1 YAC      -0.841300
@<TRIPOS>BOND
     1     1     2 1   
     2     1     3 1   
     3     1    26 1   
     4     3     4 1   
     5     3    15 1   
     6     3    16 1   
     7     4     5 1   
     8     4    17 1   
     9     4    18 1   
    10     5     6 2   
    11     5    19 1   
    12     6     7 1   
    13     6    20 1   
    14     7     8 2   
    15     7     9 1   
    16     9    10 ar  
    17     9    14 ar  
    18    10    11 ar  
    19    10    21 1   
    20    11    12 ar  
    21    11    22 1   
    22    12    13 ar  
    23    12    23 1   
    24    13    14 ar  
    25    13    24 1   
    26    14    25 1   
@<TRIPOS>SUBSTRUCTURE
     1 YAC         1 TEMP              0 ****  ****    0 ROOT
