@<TRIPOS>MOLECULE
YAC
   26    26     1     0     0
SMALL
No Charge or Current Charge


@<TRIPOS>ATOM
      1 C21         -4.4940     0.0870    -0.4850 c          1 YAC       0.719000
      2 O2          -5.1840     0.4830     0.4420 o          1 YAC      -0.736000
      3 C22         -3.4790    -1.0350    -0.2050 c3         1 YAC      -0.206400
      4 C23         -2.1280    -0.4310     0.2510 c3         1 YAC      -0.054200
      5 C24         -1.0700    -1.4830     0.5360 c2         1 YAC      -0.076200
      6 C25          0.2460    -1.2770     0.7880 ce         1 YAC      -0.380200
      7 C26          0.9490     0.0460     0.7810 c          1 YAC       0.588900
      8 O3           0.3610     1.0650     1.1230 o          1 YAC      -0.525100
      9 C27          2.3600     0.1240     0.2350 ca         1 YAC      -0.152600
     10 C28          2.9300    -0.9340    -0.5130 ca         1 YAC      -0.067000
     11 C29          4.2410    -0.8320    -1.0110 ca         1 YAC      -0.131000
     12 C30          5.0000     0.3250    -0.7750 ca         1 YAC      -0.102000
     13 C31          4.4440     1.3850    -0.0430 ca         1 YAC      -0.131000
     14 C32          3.1330     1.2880     0.4560 ca         1 YAC      -0.067000
     15 H29         -3.8220    -1.6650     0.6250 hc         1 YAC       0.017200
     16 H30         -3.2610    -1.5940    -1.1240 hc         1 YAC       0.017200
     17 H31         -1.7680     0.2560    -0.5250 hc         1 YAC       0.072700
     18 H32         -2.2950     0.1760     1.1500 hc         1 YAC       0.072700
     19 H33         -1.4510    -2.5070     0.5200 ha         1 YAC       0.150000
     20 H34          0.8940    -2.1420     0.9060 ha         1 YAC       0.163000
     21 H35          2.3630    -1.8360    -0.7310 ha         1 YAC       0.125500
     22 H36          4.6680    -1.6510    -1.5850 ha         1 YAC       0.106000
     23 H37          6.0140     0.4010    -1.1610 ha         1 YAC       0.102000
     24 H38          5.0280     2.2840     0.1390 ha         1 YAC       0.106000
     25 H39          2.7220     2.1210     1.0230 ha         1 YAC       0.125500
     26 OXT         -4.5280     0.5670    -1.6070 o          1 YAC      -0.736000
@<TRIPOS>BOND
     1     1     2 1   
     2     1     3 1   
     3     1    26 1   
     4     3     4 1   
     5     3    15 1   
     6     3    16 1   
     7     4     5 1   
     8     4    17 1   
     9     4    18 1   
    10     5     6 2   
    11     5    19 1   
    12     6     7 1   
    13     6    20 1   
    14     7     8 2   
    15     7     9 1   
    16     9    10 ar  
    17     9    14 ar  
    18    10    11 ar  
    19    10    21 1   
    20    11    12 ar  
    21    11    22 1   
    22    12    13 ar  
    23    12    23 1   
    24    13    14 ar  
    25    13    24 1   
    26    14    25 1   
@<TRIPOS>SUBSTRUCTURE
     1 YAC         1 TEMP              0 ****  ****    0 ROOT
