@<TRIPOS>MOLECULE
YAG
   45    47     1     0     0
SMALL
bcc


@<TRIPOS>ATOM
      1 C17          3.1110     7.7580    61.4590 c6         1 YAG      -0.104400
      2 C20          4.9440     5.8340    60.9280 c6         1 YAG       0.168800
      3 C21          4.2080     9.4620    60.0060 c3         1 YAG       0.116400
      4 C01          4.0340     4.7030    66.8820 cc         1 YAG       0.493900
      5 C02          3.6570     4.3560    68.2530 ca         1 YAG      -0.097500
      6 C03          4.4970     4.7240    69.3080 ca         1 YAG      -0.123000
      7 C04          4.1430     4.3990    70.6030 ca         1 YAG      -0.099000
      8 C05          2.9660     3.7120    70.8830 ca         1 YAG      -0.204000
      9 C06          2.1270     3.3470    69.8340 ca         1 YAG       0.139100
     10 C08          0.5360     2.3550    71.2890 c3         1 YAG       0.126700
     11 C09          2.4780     3.6720    68.5240 ca         1 YAG      -0.155000
     12 C11          4.2160     4.9990    64.4640 cc         1 YAG      -0.157700
     13 C12          5.1890     5.5750    65.2220 cd         1 YAG       0.359200
     14 C16          4.0560     7.3750    62.5900 c6         1 YAG       0.168800
     15 C18          3.8800     7.9790    60.1410 c6         1 YAG       0.158800
     16 C19          5.1590     7.1270    60.1610 c6         1 YAG      -0.104400
     17 N13          5.0790     5.4040    66.5680 nd         1 YAG      -0.645000
     18 N15          4.7270     6.0970    62.3500 n3         1 YAG      -0.725600
     19 O07          0.9660     2.6860    69.9840 os         1 YAG      -0.319900
     20 O22          4.9980     9.6760    58.8630 oh         1 YAG      -0.582800
     21 O23          3.1160     7.5390    59.0300 oh         1 YAG      -0.582800
     22 S10          3.1030     4.2050    65.5050 ss         1 YAG      -0.185300
     23 H1           2.5390     8.6500    61.7310 hc         1 YAG       0.059950
     24 H2           2.3830     6.9540    61.3150 hc         1 YAG       0.059950
     25 H3           4.0930     5.2980    60.4800 h1         1 YAG       0.047450
     26 H4           5.8110     5.1770    60.8170 h1         1 YAG       0.047450
     27 H5           4.7200     9.7900    60.9220 h1         1 YAG       0.018700
     28 H6           3.2630    10.0250    59.9580 h1         1 YAG       0.018700
     29 H7           5.4170     5.2560    69.1080 ha         1 YAG       0.157000
     30 H8           4.7920     4.6820    71.4220 ha         1 YAG       0.133000
     31 H9           2.7250     3.4770    71.9110 ha         1 YAG       0.136000
     32 H10         -0.4180     1.8460    71.1800 h1         1 YAG       0.041367
     33 H11          1.2370     1.6850    71.7940 h1         1 YAG       0.041367
     34 H12          0.3900     3.2440    71.9080 h1         1 YAG       0.041367
     35 H13          1.8010     3.3800    67.7290 ha         1 YAG       0.146000
     36 H14          6.0100     6.1500    64.8190 h4         1 YAG       0.054100
     37 H15          3.0010     4.8960    62.7030 h1         1 YAG       0.044200
     38 H16          4.5320     4.0560    62.6010 h1         1 YAG       0.044200
     39 H17          4.8050     8.1630    62.7270 h1         1 YAG       0.047450
     40 H18          3.5110     7.3210    63.5340 h1         1 YAG       0.047450
     41 H19          5.4730     6.9020    59.1410 hc         1 YAG       0.059950
     42 H20          5.9780     7.6860    60.6210 hc         1 YAG       0.059950
     43 H22          5.2670    10.5980    58.8500 ho         1 YAG       0.402000
     44 H23          2.2530     7.9670    59.0670 ho         1 YAG       0.398000
     45 C14          4.0670     4.9740    62.9750 c3         1 YAG       0.249100
@<TRIPOS>BOND
     1     1    14 1   
     2     1    15 1   
     3     1    23 1   
     4     1    24 1   
     5     2    16 1   
     6     2    18 1   
     7     2    25 1   
     8     2    26 1   
     9     3    15 1   
    10     3    20 1   
    11     3    27 1   
    12     3    28 1   
    13     4     5 1   
    14     4    17 2   
    15     4    22 1   
    16     5     6 ar  
    17     5    11 ar  
    18     6     7 ar  
    19     6    29 1   
    20     7     8 ar  
    21     7    30 1   
    22     8     9 ar  
    23     8    31 1   
    24     9    11 ar  
    25     9    19 1   
    26    10    19 1   
    27    10    32 1   
    28    10    33 1   
    29    10    34 1   
    30    11    35 1   
    31    12    13 2   
    32    12    22 1   
    33    12    45 1   
    34    13    17 1   
    35    13    36 1   
    36    14    18 1   
    37    14    39 1   
    38    14    40 1   
    39    15    16 1   
    40    15    21 1   
    41    16    41 1   
    42    16    42 1   
    43    18    45 1   
    44    20    43 1   
    45    21    44 1   
    46    37    45 1   
    47    38    45 1   
@<TRIPOS>SUBSTRUCTURE
     1 YAG         1 TEMP              0 ****  ****    0 ROOT
