@<TRIPOS>MOLECULE
YAG
   45    47     1     0     0
SMALL
No Charge or Current Charge


@<TRIPOS>ATOM
      1 C17          2.9080     7.4120    61.6060 c6         1 YAG      -0.104400
      2 C20          5.1090     5.9370    60.8250 c6         1 YAG       0.168800
      3 C21          3.7260     9.5360    60.3770 c3         1 YAG       0.139600
      4 C01          4.3400     4.4760    66.7690 cc         1 YAG       0.493900
      5 C02          3.8450     4.2690    68.1470 ca         1 YAG      -0.097500
      6 C03          4.6860     4.5180    69.2580 ca         1 YAG      -0.105000
      7 C04          4.2240     4.3250    70.5700 ca         1 YAG      -0.081000
      8 C05          2.9130     3.8800    70.8000 ca         1 YAG      -0.186000
      9 C06          2.0580     3.6250    69.7090 ca         1 YAG       0.139100
     10 C08          0.1830     2.9550    71.1680 c3         1 YAG       0.149900
     11 C09          2.5250     3.8200    68.3980 ca         1 YAG      -0.137000
     12 C11          4.6700     4.6580    64.3710 cc         1 YAG      -0.237300
     13 C12          5.7600     5.0050    65.1330 cd         1 YAG       0.293900
     14 C16          3.9320     7.0870    62.7170 c6         1 YAG       0.168800
     15 C18          3.6260     7.9700    60.3350 c6         1 YAG       0.182000
     16 C19          5.0500     7.3400    60.1820 c6         1 YAG      -0.104400
     17 N13          5.5730     4.8990    66.5050 nd         1 YAG      -0.645000
     18 N15          4.8790     5.9990    62.3020 n3         1 YAG      -0.725600
     19 O07          0.7600     3.1860    69.8700 os         1 YAG      -0.343100
     20 O22          4.2180    10.0820    59.1390 oh         1 YAG      -0.645000
     21 O23          2.8410     7.6410    59.1840 oh         1 YAG      -0.645000
     22 S10          3.3310     4.1740    65.3690 ss         1 YAG      -0.040400
     23 H1           2.1670     8.1310    61.9790 hc         1 YAG       0.059950
     24 H2           2.3460     6.5000    61.3640 hc         1 YAG       0.059950
     25 H3           4.3520     5.3020    60.3410 h1         1 YAG       0.047450
     26 H4           6.0880     5.4800    60.6160 h1         1 YAG       0.047450
     27 H5           4.3850     9.8260    61.2070 h1         1 YAG       0.018700
     28 H6           2.7320     9.9490    60.5920 h1         1 YAG       0.018700
     29 H7           5.7070     4.8640    69.1100 ha         1 YAG       0.139000
     30 H8           4.8860     4.5220    71.4110 ha         1 YAG       0.115000
     31 H9           2.5820     3.7390    71.8250 ha         1 YAG       0.118000
     32 H10         -0.8540     2.6110    71.0670 h1         1 YAG       0.041367
     33 H11          0.7450     2.1850    71.7130 h1         1 YAG       0.041367
     34 H12          0.1780     3.8770    71.7630 h1         1 YAG       0.041367
     35 H13          1.8400     3.6150    67.5800 ha         1 YAG       0.128000
     36 H14          6.7150     5.3410    64.7470 h4         1 YAG       0.054100
     37 H15          3.5640     4.3510    62.5720 h1         1 YAG       0.044200
     38 H16          5.2770     3.9230    62.4850 h1         1 YAG       0.044200
     39 H17          4.4990     8.0010    62.9450 h1         1 YAG       0.047450
     40 H18          3.3940     6.8220    63.6390 h1         1 YAG       0.047450
     41 H19          5.3370     7.2800    59.1240 hc         1 YAG       0.059950
     42 H20          5.8060     7.9750    60.6630 hc         1 YAG       0.059950
     43 H22          4.3090    11.0530    59.2680 ho         1 YAG       0.441000
     44 H23          3.0590     8.3510    58.5390 ho         1 YAG       0.437000
     45 C14          4.5710     4.6700    62.8740 c3         1 YAG       0.249100
@<TRIPOS>BOND
     1     1    14 1   
     2     1    15 1   
     3     1    23 1   
     4     1    24 1   
     5     2    16 1   
     6     2    18 1   
     7     2    25 1   
     8     2    26 1   
     9     3    15 1   
    10     3    20 1   
    11     3    27 1   
    12     3    28 1   
    13     4     5 1   
    14     4    17 2   
    15     4    22 1   
    16     5     6 ar  
    17     5    11 ar  
    18     6     7 ar  
    19     6    29 1   
    20     7     8 ar  
    21     7    30 1   
    22     8     9 ar  
    23     8    31 1   
    24     9    11 ar  
    25     9    19 1   
    26    10    19 1   
    27    10    32 1   
    28    10    33 1   
    29    10    34 1   
    30    11    35 1   
    31    12    13 2   
    32    12    22 1   
    33    12    45 1   
    34    13    17 1   
    35    13    36 1   
    36    14    18 1   
    37    14    39 1   
    38    14    40 1   
    39    15    16 1   
    40    15    21 1   
    41    16    41 1   
    42    16    42 1   
    43    18    45 1   
    44    20    43 1   
    45    21    44 1   
    46    37    45 1   
    47    38    45 1   
@<TRIPOS>SUBSTRUCTURE
     1 YAG         1 TEMP              0 ****  ****    0 ROOT
