@<TRIPOS>MOLECULE
YAJ
   44    46     1     0     0
SMALL
abcg2


@<TRIPOS>ATOM
      1 C10         24.3510    -2.6070     6.4210 ca         1 YAJ      -0.107000
      2 C13         27.0810    -3.0330     6.5740 ca         1 YAJ      -0.078000
      3 C20         21.7210     2.5570     8.6780 c5         1 YAJ      -0.086400
      4 C21         21.3750     3.3800     7.4320 c5         1 YAJ       0.174500
      5 C22         20.4030     4.5170     7.6810 c3         1 YAJ       0.172600
      6 C03         23.5050     2.6140     7.0470 c5         1 YAJ       0.141800
      7 C04         23.1580     2.0570     8.4340 c5         1 YAJ       0.109700
      8 C06         24.4250    -0.0370     8.6020 c          1 YAJ       0.601100
      9 C08         24.3180    -1.5520     8.7040 c3         1 YAJ      -0.112100
     10 C09         25.0390    -2.2210     7.5660 ca         1 YAJ      -0.069300
     11 C11         25.0170    -3.1920     5.3520 ca         1 YAJ      -0.102000
     12 C12         26.3800    -3.4110     5.4300 ca         1 YAJ       0.081100
     13 C14         26.4130    -2.4340     7.6300 ca         1 YAJ      -0.099000
     14 C16         29.1770    -3.6070     5.5240 c          1 YAJ       0.543000
     15 C18         28.3720    -3.6120     4.2380 c6         1 YAJ       0.071600
     16 N02         22.6790     3.7970     6.9410 n3         1 YAJ      -0.697600
     17 N05         23.2570     0.6170     8.5250 ns         1 YAJ      -0.503900
     18 N15         28.4470    -3.3130     6.6240 ns         1 YAJ      -0.142000
     19 O07         25.5110     0.5250     8.6010 o          1 YAJ      -0.597100
     20 O17         30.3750    -3.8040     5.5420 o          1 YAJ      -0.528000
     21 O19         27.0360    -4.0360     4.4210 os         1 YAJ      -0.326100
     22 O23         20.9440     5.4330     8.6030 oh         1 YAJ      -0.640000
     23 H101        23.2810    -2.4480     6.3560 ha         1 YAJ       0.114000
     24 H201        21.6780     3.1670     9.5790 hc         1 YAJ       0.057700
     25 H202        21.0120     1.7390     8.8110 hc         1 YAJ       0.057700
     26 H211        20.8830     2.7160     6.6960 h1         1 YAJ       0.020700
     27 H222        20.1580     5.0030     6.7270 h1         1 YAJ       0.016700
     28 H221        19.4680     4.0720     8.0450 h1         1 YAJ       0.016700
     29 H013        23.6980     4.6160     5.3200 h1         1 YAJ       0.031700
     30 H011        22.2610     3.6900     4.8570 h1         1 YAJ       0.031700
     31 H012        22.1000     5.2930     5.5930 h1         1 YAJ       0.031700
     32 H031        23.2570     1.8610     6.2780 h1         1 YAJ       0.048700
     33 H032        24.5630     2.8580     6.9400 h1         1 YAJ       0.048700
     34 H041        23.8320     2.4900     9.1750 h1         1 YAJ       0.086700
     35 H081        23.2770    -1.8780     8.7270 hc         1 YAJ       0.065700
     36 H082        24.7660    -1.8440     9.6560 hc         1 YAJ       0.065700
     37 H111        24.4760    -3.4960     4.4640 ha         1 YAJ       0.132000
     38 H141        26.9690    -2.1490     8.5150 ha         1 YAJ       0.130000
     39 H182        28.8340    -4.2970     3.5300 h1         1 YAJ       0.084700
     40 H181        28.4080    -2.6020     3.8080 h1         1 YAJ       0.084700
     41 H051        22.4060     0.0790     8.4800 hn         1 YAJ       0.310500
     42 H151        28.9320    -3.2160     7.5060 hn         1 YAJ       0.166000
     43 H231        20.2660     6.0840     8.8070 ho         1 YAJ       0.437000
     44 C01         22.6780     4.3690     5.6170 c3         1 YAJ       0.157100
@<TRIPOS>BOND
     1     1    10 ar  
     2     1    11 ar  
     3     1    23 1   
     4     2    12 ar  
     5     2    13 ar  
     6     2    18 1   
     7     3     4 1   
     8     3     7 1   
     9     3    24 1   
    10     3    25 1   
    11     4     5 1   
    12     4    16 1   
    13     4    26 1   
    14     5    22 1   
    15     5    27 1   
    16     5    28 1   
    17     6     7 1   
    18     6    16 1   
    19     6    32 1   
    20     6    33 1   
    21     7    17 1   
    22     7    34 1   
    23     8     9 1   
    24     8    17 1   
    25     8    19 2   
    26     9    10 1   
    27     9    35 1   
    28     9    36 1   
    29    10    13 ar  
    30    11    12 ar  
    31    11    37 1   
    32    12    21 1   
    33    13    38 1   
    34    14    15 1   
    35    14    18 1   
    36    14    20 2   
    37    15    21 1   
    38    15    39 1   
    39    15    40 1   
    40    16    44 1   
    41    17    41 1   
    42    18    42 1   
    43    22    43 1   
    44    29    44 1   
    45    30    44 1   
    46    31    44 1   
@<TRIPOS>SUBSTRUCTURE
     1 YAJ         1 TEMP              0 ****  ****    0 ROOT
