@<TRIPOS>MOLECULE
YAJ
   44    46     1     0     0
SMALL
No Charge or Current Charge


@<TRIPOS>ATOM
      1 C10         24.1610    -1.8630     6.6030 ca         1 YAJ      -0.107000
      2 C13         26.8080    -2.7820     6.4300 ca         1 YAJ      -0.078000
      3 C20         21.9120     2.6920     8.8960 c5         1 YAJ      -0.086400
      4 C21         21.7000     2.8690     7.3660 c5         1 YAJ       0.174500
      5 C22         20.3640     3.5910     6.9780 c3         1 YAJ       0.172600
      6 C03         24.0200     2.6810     7.6110 c5         1 YAJ       0.141800
      7 C04         23.4030     2.2440     8.9870 c5         1 YAJ       0.109700
      8 C06         24.5190     0.0730     9.2380 c          1 YAJ       0.601100
      9 C08         24.3990    -1.4470     9.1010 c3         1 YAJ      -0.112100
     10 C09         24.9650    -1.9060     7.7610 ca         1 YAJ      -0.069300
     11 C11         24.6770    -2.2780     5.3620 ca         1 YAJ      -0.102000
     12 C12         26.0030    -2.7280     5.2720 ca         1 YAJ       0.081100
     13 C14         26.2920    -2.3730     7.6710 ca         1 YAJ      -0.099000
     14 C16         28.6790    -3.7090     5.1210 c          1 YAJ       0.543000
     15 C18         27.9570    -3.1240     3.8910 c6         1 YAJ       0.071600
     16 N02         22.9750     3.5550     7.0170 n3         1 YAJ      -0.697600
     17 N05         23.3570     0.7710     8.9660 ns         1 YAJ      -0.503900
     18 N15         28.1130    -3.3090     6.3110 ns         1 YAJ      -0.142000
     19 O07         25.5680     0.6230     9.5450 o          1 YAJ      -0.597100
     20 O17         29.6140    -4.5010     5.0540 o          1 YAJ      -0.528000
     21 O19         26.5110    -3.1410     4.0530 os         1 YAJ      -0.326100
     22 O23         20.2550     4.9100     7.5440 oh         1 YAJ      -0.640000
     23 H101        23.1350    -1.5070     6.6620 ha         1 YAJ       0.114000
     24 H201        21.7750     3.6440     9.4210 hc         1 YAJ       0.057700
     25 H202        21.2060     1.9830     9.3440 hc         1 YAJ       0.057700
     26 H211        21.6690     1.8820     6.8820 h1         1 YAJ       0.020700
     27 H222        20.3000     3.6460     5.8830 h1         1 YAJ       0.016700
     28 H221        19.5260     2.9690     7.3200 h1         1 YAJ       0.016700
     29 H013        24.1550     4.3540     5.4370 h1         1 YAJ       0.031700
     30 H011        23.1390     2.9680     4.9730 h1         1 YAJ       0.031700
     31 H012        22.4060     4.5710     5.2310 h1         1 YAJ       0.031700
     32 H031        24.2210     1.8150     6.9630 h1         1 YAJ       0.048700
     33 H032        24.9690     3.2160     7.7470 h1         1 YAJ       0.048700
     34 H041        23.9220     2.6650     9.8600 h1         1 YAJ       0.086700
     35 H081        23.3450    -1.7430     9.1600 hc         1 YAJ       0.065700
     36 H082        24.9540    -1.9190     9.9200 hc         1 YAJ       0.065700
     37 H111        24.0540    -2.2450     4.4720 ha         1 YAJ       0.132000
     38 H141        26.9160    -2.4200     8.5610 ha         1 YAJ       0.130000
     39 H182        28.2430    -3.6990     3.0010 h1         1 YAJ       0.084700
     40 H181        28.2960    -2.0850     3.7780 h1         1 YAJ       0.084700
     41 H051        22.5370     0.2330     8.7150 hn         1 YAJ       0.310500
     42 H151        28.5680    -3.6090     7.1640 hn         1 YAJ       0.166000
     43 H231        19.4230     5.3000     7.1970 ho         1 YAJ       0.437000
     44 C01         23.1780     3.8770     5.5880 c3         1 YAJ       0.157100
@<TRIPOS>BOND
     1     1    10 ar  
     2     1    11 ar  
     3     1    23 1   
     4     2    12 ar  
     5     2    13 ar  
     6     2    18 1   
     7     3     4 1   
     8     3     7 1   
     9     3    24 1   
    10     3    25 1   
    11     4     5 1   
    12     4    16 1   
    13     4    26 1   
    14     5    22 1   
    15     5    27 1   
    16     5    28 1   
    17     6     7 1   
    18     6    16 1   
    19     6    32 1   
    20     6    33 1   
    21     7    17 1   
    22     7    34 1   
    23     8     9 1   
    24     8    17 1   
    25     8    19 2   
    26     9    10 1   
    27     9    35 1   
    28     9    36 1   
    29    10    13 ar  
    30    11    12 ar  
    31    11    37 1   
    32    12    21 1   
    33    13    38 1   
    34    14    15 1   
    35    14    18 1   
    36    14    20 2   
    37    15    21 1   
    38    15    39 1   
    39    15    40 1   
    40    16    44 1   
    41    17    41 1   
    42    18    42 1   
    43    22    43 1   
    44    29    44 1   
    45    30    44 1   
    46    31    44 1   
@<TRIPOS>SUBSTRUCTURE
     1 YAJ         1 TEMP              0 ****  ****    0 ROOT
