@<TRIPOS>MOLECULE
YAK
   59    63     1     0     0
SMALL
No Charge or Current Charge


@<TRIPOS>ATOM
      1 F34          6.5880     4.0140    -2.0760 f          1 YAK      -0.176000
      2 C11          6.1200     3.0610    -1.2410 ca         1 YAK       0.177000
      3 C5           7.0130     2.1670    -0.6320 ca         1 YAK      -0.152000
      4 C6           4.7440     2.9720    -0.9850 ca         1 YAK      -0.152000
      5 C2           4.2560     1.9800    -0.1160 ca         1 YAK      -0.073500
      6 C8           5.1450     1.0720     0.4960 ca         1 YAK      -0.134300
      7 C1           6.5270     1.1740     0.2370 ca         1 YAK      -0.073500
      8 C23          4.6140    -0.0070     1.4360 c3         1 YAK       0.139300
      9 N26          3.5790    -0.8810     0.8100 n          1 YAK      -0.383800
     10 C21          3.8570    -1.6830    -0.4170 c5         1 YAK       0.119700
     11 C19          5.2690    -2.3410    -0.3340 c5         1 YAK      -0.089400
     12 C17          5.1200    -3.4270     0.7850 c5         1 YAK      -0.077400
     13 C20          3.0000    -2.9610    -0.3640 c5         1 YAK      -0.081500
     14 C18          3.5890    -3.7470     0.8490 c5         1 YAK      -0.062400
     15 C14          1.5250    -2.6410    -0.1780 c2         1 YAK       0.294900
     16 O33          0.6320    -3.4630    -0.7380 oh         1 YAK      -0.530100
     17 C16          2.2290    -0.6730     1.1610 c          1 YAK       0.614200
     18 O28          1.9200     0.2070     1.9520 o          1 YAK      -0.607000
     19 C13          1.1820    -1.5600     0.5700 ce         1 YAK      -0.481800
     20 C15         -0.2240    -1.2220     0.8020 ce         1 YAK       0.825500
     21 N24         -1.1920    -1.8180     0.1620 nf         1 YAK      -0.778100
     22 C9          -2.5020    -1.3080     0.0600 ca         1 YAK       0.267400
     23 C3          -3.4120    -1.8520    -0.8570 ca         1 YAK      -0.103000
     24 N25         -0.5310    -0.8100     2.0520 nu         1 YAK      -0.878300
     25 S35         -1.7000     0.3470     2.0110 sy         1 YAK       1.197600
     26 O29         -1.0220     1.5060     1.4310 o          1 YAK      -0.524500
     27 O30         -2.2510     0.3770     3.3660 o          1 YAK      -0.524500
     28 C12         -2.9000    -0.2630     0.8810 ca         1 YAK      -0.319500
     29 C7          -4.2080     0.2590     0.8140 ca         1 YAK       0.002000
     30 C10         -5.1340    -0.2760    -0.1130 ca         1 YAK       0.259000
     31 C4          -4.7210    -1.3380    -0.9410 ca         1 YAK      -0.074000
     32 N27         -6.4470     0.1930    -0.2400 nu         1 YAK      -0.922100
     33 S36         -7.0940     1.6680     0.1600 s6         1 YAK       1.200100
     34 O31         -8.4330     1.6580    -0.4280 o          1 YAK      -0.530000
     35 O32         -6.9140     1.8230     1.6040 o          1 YAK      -0.530000
     36 C22         -6.0920     2.8590    -0.7020 c3         1 YAK      -0.349100
     37 H5           8.0780     2.2440    -0.8340 ha         1 YAK       0.135500
     38 H6           4.0590     3.6700    -1.4580 ha         1 YAK       0.135500
     39 H2           3.1880     1.9180     0.0800 ha         1 YAK       0.121000
     40 H1           7.2270     0.4850     0.7070 ha         1 YAK       0.121000
     41 H23          5.4440    -0.6360     1.7810 h1         1 YAK       0.076200
     42 H23A         4.2270     0.4780     2.3400 h1         1 YAK       0.076200
     43 H21          3.7070    -1.0950    -1.3340 h1         1 YAK       0.068700
     44 H19          5.5150    -2.8170    -1.2910 hc         1 YAK       0.058200
     45 H19A         6.0850    -1.6370    -0.1430 hc         1 YAK       0.058200
     46 H17          5.7140    -4.3190     0.5530 hc         1 YAK       0.054200
     47 H17A         5.4780    -3.0570     1.7530 hc         1 YAK       0.054200
     48 H20          3.1320    -3.5360    -1.2880 hc         1 YAK       0.091700
     49 H18          3.3860    -4.8220     0.7750 hc         1 YAK       0.059200
     50 H18A         3.1620    -3.4130     1.8030 hc         1 YAK       0.059200
     51 HO33        -0.2470    -3.0460    -0.5170 ho         1 YAK       0.562000
     52 H3          -3.1060    -2.6720    -1.5000 ha         1 YAK       0.129000
     53 HN25         0.2590    -0.2860     2.4030 hn         1 YAK       0.579000
     54 H7          -4.4940     1.0660     1.4820 ha         1 YAK       0.131000
     55 H4          -5.4160    -1.7710    -1.6550 ha         1 YAK       0.120000
     56 HN27        -7.0160    -0.1620    -0.9980 hn         1 YAK       0.502000
     57 H22         -6.1480     2.6270    -1.7700 h1         1 YAK       0.106367
     58 H22A        -6.5080     3.8490    -0.4890 h1         1 YAK       0.106367
     59 H22B        -5.0680     2.7710    -0.3270 h1         1 YAK       0.106367
@<TRIPOS>BOND
     1     1     2 1   
     2     2     3 ar  
     3     2     4 ar  
     4     3     7 ar  
     5     3    37 1   
     6     4     5 ar  
     7     4    38 1   
     8     5     6 ar  
     9     5    39 1   
    10     6     7 ar  
    11     6     8 1   
    12     7    40 1   
    13     8     9 1   
    14     8    41 1   
    15     8    42 1   
    16     9    10 1   
    17     9    17 1   
    18    10    11 1   
    19    10    13 1   
    20    10    43 1   
    21    11    12 1   
    22    11    44 1   
    23    11    45 1   
    24    12    14 1   
    25    12    46 1   
    26    12    47 1   
    27    13    14 1   
    28    13    15 1   
    29    13    48 1   
    30    14    49 1   
    31    14    50 1   
    32    15    16 1   
    33    15    19 2   
    34    16    51 1   
    35    17    18 2   
    36    17    19 1   
    37    19    20 1   
    38    20    21 2   
    39    20    24 1   
    40    21    22 1   
    41    22    23 ar  
    42    22    28 ar  
    43    23    31 ar  
    44    23    52 1   
    45    24    25 1   
    46    24    53 1   
    47    25    26 2   
    48    25    27 2   
    49    25    28 1   
    50    28    29 ar  
    51    29    30 ar  
    52    29    54 1   
    53    30    31 ar  
    54    30    32 1   
    55    31    55 1   
    56    32    33 1   
    57    32    56 1   
    58    33    34 2   
    59    33    35 2   
    60    33    36 1   
    61    36    57 1   
    62    36    58 1   
    63    36    59 1   
@<TRIPOS>SUBSTRUCTURE
     1 YAK         1 TEMP              0 ****  ****    0 ROOT
