@<TRIPOS>MOLECULE
YAK
   59    63     1     0     0
SMALL
abcg2


@<TRIPOS>ATOM
      1 F34          7.6090     3.1710    -2.0620 f          1 YAK      -0.176000
      2 C11          6.9100     2.4160    -1.1990 ca         1 YAK       0.177000
      3 C5           7.5810     1.5110    -0.4040 ca         1 YAK      -0.152000
      4 C6           5.5370     2.5710    -1.1340 ca         1 YAK      -0.152000
      5 C2           4.8220     1.7890    -0.2410 ca         1 YAK      -0.073500
      6 C8           5.4630     0.8600     0.5760 ca         1 YAK      -0.134300
      7 C1           6.8440     0.7340     0.4810 ca         1 YAK      -0.073500
      8 C23          4.6740     0.0130     1.5450 c3         1 YAK       0.139300
      9 N26          3.6280    -0.7580     0.8870 n          1 YAK      -0.383800
     10 C21          4.0520    -1.7240    -0.1260 c5         1 YAK       0.119700
     11 C19          5.1860    -2.6230     0.3580 c5         1 YAK      -0.089400
     12 C17          4.5140    -3.5690     1.3500 c5         1 YAK      -0.077400
     13 C20          2.9590    -2.7590    -0.3660 c5         1 YAK      -0.081500
     14 C18          3.0830    -3.7640     0.8110 c5         1 YAK      -0.062400
     15 C14          1.6060    -2.1710    -0.4720 c2         1 YAK       0.294900
     16 O33          0.7490    -2.8460    -1.1720 oh         1 YAK      -0.530100
     17 C16          2.3500    -0.3280     0.9840 c          1 YAK       0.614200
     18 O28          2.0580     0.6230     1.7260 o          1 YAK      -0.607000
     19 C13          1.3090    -1.0030     0.1970 ce         1 YAK      -0.481800
     20 C15         -0.0480    -0.4850     0.1550 ce         1 YAK       0.825500
     21 N24         -0.9340    -1.1030    -0.5730 nf         1 YAK      -0.778100
     22 C9          -2.2640    -0.7520    -0.5500 ca         1 YAK       0.267400
     23 C3          -3.2070    -1.6290    -1.0950 ca         1 YAK      -0.103000
     24 N25         -0.3570     0.5980     0.9260 nu         1 YAK      -0.878300
     25 S35         -1.5930     1.6280     0.5180 sy         1 YAK       1.197600
     26 O29         -1.2160     2.4220    -0.6370 o          1 YAK      -0.524500
     27 O30         -2.0020     2.3230     1.7220 o          1 YAK      -0.524500
     28 C12         -2.7560     0.4260     0.0230 ca         1 YAK      -0.319500
     29 C7          -4.1090     0.7290     0.0800 ca         1 YAK       0.002000
     30 C10         -5.0220    -0.1730    -0.4410 ca         1 YAK       0.259000
     31 C4          -4.5540    -1.3500    -1.0310 ca         1 YAK      -0.074000
     32 N27         -6.3980     0.1030    -0.4360 nu         1 YAK      -0.922100
     33 S36         -7.2550     0.4020     0.9640 s6         1 YAK       1.200100
     34 O31         -8.5160    -0.3100     0.8370 o          1 YAK      -0.530000
     35 O32         -6.3860     0.1440     2.0990 o          1 YAK      -0.530000
     36 C22         -7.5900     2.1400     0.8880 c3         1 YAK      -0.349100
     37 H5           8.6560     1.4060    -0.4740 ha         1 YAK       0.135500
     38 H6           5.0350     3.2940    -1.7650 ha         1 YAK       0.135500
     39 H2           3.7490     1.9210    -0.1830 ha         1 YAK       0.121000
     40 H1           7.3660     0.0190     1.1070 ha         1 YAK       0.121000
     41 H23          5.3400    -0.6660     2.0770 h1         1 YAK       0.076200
     42 H23A         4.2100     0.6400     2.3020 h1         1 YAK       0.076200
     43 H21          4.3170    -1.1950    -1.0480 h1         1 YAK       0.068700
     44 H19          5.5480    -3.1740    -0.5140 hc         1 YAK       0.058200
     45 H19A         6.0480    -2.0990     0.7680 hc         1 YAK       0.058200
     46 H17          5.0520    -4.5120     1.4430 hc         1 YAK       0.054200
     47 H17A         4.4840    -3.1190     2.3440 hc         1 YAK       0.054200
     48 H20          3.1900    -3.2670    -1.3040 hc         1 YAK       0.091700
     49 H18          2.9060    -4.7770     0.4560 hc         1 YAK       0.059200
     50 H18A         2.3390    -3.5640     1.5830 hc         1 YAK       0.059200
     51 HO33        -0.1370    -2.3370    -1.1260 ho         1 YAK       0.562000
     52 H3          -2.8650    -2.5510    -1.5460 ha         1 YAK       0.129000
     53 HN25         0.4530     0.9600     1.4710 hn         1 YAK       0.579000
     54 H7          -4.4340     1.6710     0.5010 ha         1 YAK       0.131000
     55 H4          -5.2630    -2.0590    -1.4410 ha         1 YAK       0.120000
     56 HN27        -6.9500    -0.3920    -1.1260 hn         1 YAK       0.502000
     57 H22         -8.1480     2.3530    -0.0210 h1         1 YAK       0.106367
     58 H22A        -8.1820     2.4030     1.7630 h1         1 YAK       0.106367
     59 H22B        -6.6550     2.6960     0.8950 h1         1 YAK       0.106367
@<TRIPOS>BOND
     1     1     2 1   
     2     2     3 ar  
     3     2     4 ar  
     4     3     7 ar  
     5     3    37 1   
     6     4     5 ar  
     7     4    38 1   
     8     5     6 ar  
     9     5    39 1   
    10     6     7 ar  
    11     6     8 1   
    12     7    40 1   
    13     8     9 1   
    14     8    41 1   
    15     8    42 1   
    16     9    10 1   
    17     9    17 1   
    18    10    11 1   
    19    10    13 1   
    20    10    43 1   
    21    11    12 1   
    22    11    44 1   
    23    11    45 1   
    24    12    14 1   
    25    12    46 1   
    26    12    47 1   
    27    13    14 1   
    28    13    15 1   
    29    13    48 1   
    30    14    49 1   
    31    14    50 1   
    32    15    16 1   
    33    15    19 2   
    34    16    51 1   
    35    17    18 2   
    36    17    19 1   
    37    19    20 1   
    38    20    21 2   
    39    20    24 1   
    40    21    22 1   
    41    22    23 ar  
    42    22    28 ar  
    43    23    31 ar  
    44    23    52 1   
    45    24    25 1   
    46    24    53 1   
    47    25    26 2   
    48    25    27 2   
    49    25    28 1   
    50    28    29 ar  
    51    29    30 ar  
    52    29    54 1   
    53    30    31 ar  
    54    30    32 1   
    55    31    55 1   
    56    32    33 1   
    57    32    56 1   
    58    33    34 2   
    59    33    35 2   
    60    33    36 1   
    61    36    57 1   
    62    36    58 1   
    63    36    59 1   
@<TRIPOS>SUBSTRUCTURE
     1 YAK         1 TEMP              0 ****  ****    0 ROOT
