@<TRIPOS>MOLECULE
YAM
   55    58     1     0     0
SMALL
bcc


@<TRIPOS>ATOM
      1 C35         -2.4290     0.1090    -1.5530 c3         1 YAM       0.187100
      2 C34         -2.9550    -3.1470    -1.1470 c3         1 YAM      -0.260300
      3 N2           1.7180     1.4690    -0.1690 nb         1 YAM      -0.794000
      4 C7           1.0220     2.5740    -0.3870 ca         1 YAM       0.553200
      5 C6          -0.2340     2.8180     0.1300 ca         1 YAM      -0.592900
      6 C13         -3.8980     0.3600     1.6050 ca         1 YAM      -0.174600
      7 C20         -3.8930    -0.2950     0.3730 ca         1 YAM       0.619200
      8 C21          5.3210    -2.2480    -0.4830 ca         1 YAM       0.042600
      9 C8          -0.9610     4.0710    -0.1830 c3         1 YAM       0.745200
     10 C18         -6.2930     0.2050     1.5220 ca         1 YAM      -0.235300
     11 C16          3.0610    -2.4710     0.1980 ca         1 YAM      -0.130000
     12 C19         -6.1660    -0.4230     0.2950 ca         1 YAM       0.424200
     13 O33         -2.3220    -2.4570     1.3080 o          1 YAM      -0.610300
     14 S31         -2.0300    -2.0790    -0.0660 s6         1 YAM       1.241900
     15 O32         -0.6540    -2.0670    -0.5340 o          1 YAM      -0.610300
     16 N30         -2.6500    -0.5520    -0.2700 nh         1 YAM      -0.715200
     17 C17         -5.1390     0.6030     2.1780 ca         1 YAM      -0.081000
     18 N1          -4.9870    -0.6680    -0.2650 nb         1 YAM      -0.705000
     19 N10         -1.9940     1.8760     1.5120 nu         1 YAM      -0.864900
     20 C5          -0.7760     1.7890     0.9540 ca         1 YAM       0.816200
     21 F29         -2.1270     3.8450    -0.8220 f          1 YAM      -0.241967
     22 F28         -1.2850     4.7700     0.9220 f          1 YAM      -0.241967
     23 F27         -0.2510     4.8910    -0.9620 f          1 YAM      -0.241967
     24 N4          -0.0680     0.6970     1.1890 nb         1 YAM      -0.872000
     25 C3           1.1240     0.5700     0.6150 ca         1 YAM       0.981900
     26 N9           1.7530    -0.5980     0.8860 nu         1 YAM      -0.710300
     27 C11          2.9620    -1.0920     0.3860 ca         1 YAM       0.140600
     28 C14          4.0740    -0.2790     0.1350 ca         1 YAM      -0.078000
     29 C22          5.2390    -0.8680    -0.3040 ca         1 YAM      -0.128300
     30 C23          6.5670    -0.2760    -0.6540 c5         1 YAM      -0.118100
     31 C15          4.2410    -3.0680    -0.2300 ca         1 YAM      -0.141000
     32 N25          6.6000    -2.5790    -0.9200 ns         1 YAM      -0.473100
     33 C24          7.4020    -1.4860    -1.0470 c          1 YAM       0.706500
     34 O26          8.5610    -1.4940    -1.4070 o          1 YAM      -0.607500
     35 H35         -2.6560     1.1660    -1.4310 h1         1 YAM       0.059033
     36 H35A        -1.3830     0.0250    -1.8350 h1         1 YAM       0.059033
     37 H35B        -3.0540    -0.2900    -2.3540 h1         1 YAM       0.059033
     38 H34         -4.0120    -3.0880    -0.9010 h1         1 YAM       0.105367
     39 H34A        -2.7940    -2.8450    -2.1800 h1         1 YAM       0.105367
     40 H34B        -2.5880    -4.1620    -1.0000 h1         1 YAM       0.105367
     41 H7           1.5020     3.3060    -1.0250 h4         1 YAM       0.033100
     42 H18         -7.2710     0.3850     1.9460 ha         1 YAM       0.151000
     43 H16          2.1950    -3.0940     0.3860 ha         1 YAM       0.144000
     44 H19         -7.0410    -0.7420    -0.2580 h4         1 YAM       0.027100
     45 H17         -5.2010     1.1100     3.1340 ha         1 YAM       0.145000
     46 H12         -2.8610     1.1850     3.2730 h1         1 YAM       0.082200
     47 H12A        -1.9230     0.0020     2.3760 h1         1 YAM       0.082200
     48 HN10        -2.5330     2.7180     1.4110 hn         1 YAM       0.447800
     49 HN9          1.1530    -1.2760     1.3300 hn         1 YAM       0.461800
     50 H14          4.0240     0.7890     0.2840 ha         1 YAM       0.162000
     51 H23          6.5190     0.4310    -1.4850 hc         1 YAM       0.090700
     52 H23A         7.0420     0.2470     0.1800 hc         1 YAM       0.090700
     53 H15          4.2940    -4.1410    -0.3630 ha         1 YAM       0.141000
     54 HN25         6.9120    -3.5180    -1.1130 hn         1 YAM       0.336500
     55 C12         -2.6280     0.8200     2.2700 c3         1 YAM       0.280100
@<TRIPOS>BOND
     1     1    16 1   
     2     1    35 1   
     3     1    36 1   
     4     1    37 1   
     5     2    14 1   
     6     2    38 1   
     7     2    39 1   
     8     2    40 1   
     9     3     4 ar  
    10     3    25 ar  
    11     4     5 ar  
    12     4    41 1   
    13     5     9 1   
    14     5    20 ar  
    15     6     7 ar  
    16     6    17 ar  
    17     6    55 1   
    18     7    16 1   
    19     7    18 ar  
    20     8    29 ar  
    21     8    31 ar  
    22     8    32 1   
    23     9    21 1   
    24     9    22 1   
    25     9    23 1   
    26    10    12 ar  
    27    10    17 ar  
    28    10    42 1   
    29    11    27 ar  
    30    11    31 ar  
    31    11    43 1   
    32    12    18 ar  
    33    12    44 1   
    34    13    14 2   
    35    14    15 2   
    36    14    16 1   
    37    17    45 1   
    38    19    20 1   
    39    19    48 1   
    40    19    55 1   
    41    20    24 ar  
    42    24    25 ar  
    43    25    26 1   
    44    26    27 1   
    45    26    49 1   
    46    27    28 ar  
    47    28    29 ar  
    48    28    50 1   
    49    29    30 1   
    50    30    33 1   
    51    30    51 1   
    52    30    52 1   
    53    31    53 1   
    54    32    33 1   
    55    32    54 1   
    56    33    34 2   
    57    46    55 1   
    58    47    55 1   
@<TRIPOS>SUBSTRUCTURE
     1 YAM         1 TEMP              0 ****  ****    0 ROOT
