@<TRIPOS>MOLECULE
YAM
   55    58     1     0     0
SMALL
No Charge or Current Charge


@<TRIPOS>ATOM
      1 C35         -1.4030    -1.1140    -1.0000 c3         1 YAM       0.187100
      2 C34         -3.8420    -3.5710    -0.5150 c3         1 YAM      -0.371100
      3 N2           1.4400     1.6020     0.0170 nb         1 YAM      -0.268000
      4 C7           0.6500     2.6870    -0.0100 ca         1 YAM       0.224900
      5 C6          -0.5060     2.7820     0.7860 ca         1 YAM      -0.462300
      6 C13         -3.7280     0.4910     1.2190 ca         1 YAM      -0.109300
      7 C20         -3.4800    -0.3550     0.1100 ca         1 YAM       0.553900
      8 C21          5.3360    -1.9600    -0.8920 ca         1 YAM      -0.050000
      9 C8          -1.4090     4.0090     0.7120 c3         1 YAM       0.381300
     10 C18         -5.5920     1.3990    -0.0200 ca         1 YAM      -0.152000
     11 C16          3.1870    -2.3750     0.0940 ca         1 YAM      -0.112000
     12 C19         -5.2510     0.5430    -1.0780 ca         1 YAM       0.358900
     13 O33         -3.4090    -2.6860     1.9340 o          1 YAM      -0.539500
     14 S31         -2.7120    -2.8330     0.6520 s6         1 YAM       1.211100
     15 O32         -1.4400    -3.5590     0.5910 o          1 YAM      -0.539500
     16 N30         -2.4200    -1.2490     0.0600 nh         1 YAM      -0.715200
     17 C17         -4.8180     1.3790     1.1490 ca         1 YAM      -0.063000
     18 N1          -4.2120    -0.3170    -1.0210 nb         1 YAM      -0.705000
     19 N10         -1.9100     1.6370     2.4030 nu         1 YAM      -0.920100
     20 C5          -0.7870     1.6810     1.6030 ca         1 YAM       0.487900
     21 F29         -2.6220     3.7000     0.2020 f          1 YAM      -0.120667
     22 F28         -1.6160     4.5560     1.9310 f          1 YAM      -0.120667
     23 F27         -0.8990     4.9880    -0.0680 f          1 YAM      -0.120667
     24 N4          -0.0010     0.5990     1.6400 nb         1 YAM      -0.346000
     25 C3           1.0750     0.6200     0.8530 ca         1 YAM       0.455900
     26 N9           1.8200    -0.5470     0.8890 nu         1 YAM      -0.903900
     27 C11          3.0060    -0.9820     0.2820 ca         1 YAM       0.279000
     28 C14          4.0280    -0.0850    -0.1170 ca         1 YAM      -0.060000
     29 C22          5.1890    -0.6040    -0.7100 ca         1 YAM      -0.128300
     30 C23          6.4300     0.1200    -1.2240 c5         1 YAM      -0.118100
     31 C15          4.3620    -2.8820    -0.5030 ca         1 YAM      -0.123000
     32 N25          6.5740    -2.1670    -1.4890 ns         1 YAM      -0.147000
     33 C24          7.3330    -1.0430    -1.7500 c          1 YAM       0.564000
     34 O26          8.4400    -1.0110    -2.2720 o          1 YAM      -0.532000
     35 H35         -1.2560    -0.0560    -1.2540 h1         1 YAM       0.059033
     36 H35A        -0.4350    -1.5090    -0.6670 h1         1 YAM       0.059033
     37 H35B        -1.7100    -1.6510    -1.9070 h1         1 YAM       0.059033
     38 H34         -4.7650    -2.9840    -0.5000 h1         1 YAM       0.105367
     39 H34A        -3.3650    -3.5400    -1.4990 h1         1 YAM       0.105367
     40 H34B        -4.0220    -4.6000    -0.1900 h1         1 YAM       0.105367
     41 H7           0.9520     3.4810    -0.6930 h4         1 YAM       0.033100
     42 H18         -6.4380     2.0730    -0.1180 ha         1 YAM       0.133000
     43 H16          2.4100    -3.0680     0.4050 ha         1 YAM       0.126000
     44 H19         -5.8290     0.5460    -2.0020 h4         1 YAM       0.027100
     45 H17         -5.0520     2.0480     1.9760 ha         1 YAM       0.127000
     46 H12         -3.4840     0.5810     3.3450 h1         1 YAM       0.082200
     47 H12A        -2.2910    -0.4480     2.5600 h1         1 YAM       0.082200
     48 HN10        -2.3460     2.5500     2.5060 hn         1 YAM       0.503000
     49 HN9          1.3320    -1.2750     1.4080 hn         1 YAM       0.517000
     50 H14          3.9360     0.9840     0.0440 ha         1 YAM       0.144000
     51 H23          6.2360     0.8190    -2.0450 hc         1 YAM       0.090700
     52 H23A         6.9770     0.6740    -0.4540 hc         1 YAM       0.090700
     53 H15          4.5030    -3.9500    -0.6540 ha         1 YAM       0.123000
     54 HN25         6.9020    -3.0950    -1.7250 hn         1 YAM       0.170000
     55 C12         -2.8410     0.4960     2.4580 c3         1 YAM       0.280100
@<TRIPOS>BOND
     1     1    16 1   
     2     1    35 1   
     3     1    36 1   
     4     1    37 1   
     5     2    14 1   
     6     2    38 1   
     7     2    39 1   
     8     2    40 1   
     9     3     4 ar  
    10     3    25 ar  
    11     4     5 ar  
    12     4    41 1   
    13     5     9 1   
    14     5    20 ar  
    15     6     7 ar  
    16     6    17 ar  
    17     6    55 1   
    18     7    16 1   
    19     7    18 ar  
    20     8    29 ar  
    21     8    31 ar  
    22     8    32 1   
    23     9    21 1   
    24     9    22 1   
    25     9    23 1   
    26    10    12 ar  
    27    10    17 ar  
    28    10    42 1   
    29    11    27 ar  
    30    11    31 ar  
    31    11    43 1   
    32    12    18 ar  
    33    12    44 1   
    34    13    14 2   
    35    14    15 2   
    36    14    16 1   
    37    17    45 1   
    38    19    20 1   
    39    19    48 1   
    40    19    55 1   
    41    20    24 ar  
    42    24    25 ar  
    43    25    26 1   
    44    26    27 1   
    45    26    49 1   
    46    27    28 ar  
    47    28    29 ar  
    48    28    50 1   
    49    29    30 1   
    50    30    33 1   
    51    30    51 1   
    52    30    52 1   
    53    31    53 1   
    54    32    33 1   
    55    32    54 1   
    56    33    34 2   
    57    46    55 1   
    58    47    55 1   
@<TRIPOS>SUBSTRUCTURE
     1 YAM         1 TEMP              0 ****  ****    0 ROOT
