@<TRIPOS>MOLECULE
YAN
   12    12     1     0     0
SMALL
bcc


@<TRIPOS>ATOM
      1 CL1          4.1630    -2.4620     2.8330 cl         1 YAN      -0.082400
      2 CAG          2.8740    -1.7090     1.9720 ca         1 YAN       0.026400
      3 CAE          2.8980    -1.6950     0.5850 ca         1 YAN      -0.114500
      4 CAC          1.8660    -1.0930    -0.1180 ca         1 YAN      -0.119000
      5 CAD          0.8100    -0.5050     0.5640 ca         1 YAN      -0.119000
      6 CAF          0.7840    -0.5180     1.9500 ca         1 YAN      -0.114500
      7 CAH          1.8150    -1.1200     2.6560 ca         1 YAN       0.026400
      8 CL2          1.7700    -1.1290     4.3780 cl         1 YAN      -0.082400
      9 HAE          3.7240    -2.1550     0.0620 ha         1 YAN       0.150000
     10 HAC          1.8920    -1.0870    -1.1990 ha         1 YAN       0.140000
     11 HAD          0.0020    -0.0350     0.0210 ha         1 YAN       0.140000
     12 HAF         -0.0370    -0.0620     2.4870 ha         1 YAN       0.150000
@<TRIPOS>BOND
     1     1     2 1   
     2     2     3 ar  
     3     2     7 ar  
     4     3     4 ar  
     5     3     9 1   
     6     4     5 ar  
     7     4    10 1   
     8     5     6 ar  
     9     5    11 1   
    10     6     7 ar  
    11     6    12 1   
    12     7     8 1   
@<TRIPOS>SUBSTRUCTURE
     1 YAN         1 TEMP              0 ****  ****    0 ROOT
