@<TRIPOS>MOLECULE
YAN
   12    12     1     0     0
SMALL
No Charge or Current Charge


@<TRIPOS>ATOM
      1 Cl1          4.2160    -2.4920     2.8500 cl         1 YAN      -0.174000
      2 CAG          2.8890    -1.7180     1.9820 ca         1 YAN       0.118000
      3 CAE          2.9100    -1.7020     0.5760 ca         1 YAN      -0.096500
      4 CAC          1.8640    -1.0920    -0.1400 ca         1 YAN      -0.101000
      5 CAD          0.7940    -0.4960     0.5510 ca         1 YAN      -0.101000
      6 CAF          0.7700    -0.5110     1.9570 ca         1 YAN      -0.096500
      7 CAH          1.8140    -1.1200     2.6750 ca         1 YAN       0.118000
      8 Cl2          1.7540    -1.1210     4.4390 cl         1 YAN      -0.174000
      9 HAE          3.7380    -2.1630     0.0420 ha         1 YAN       0.132000
     10 HAC          1.8840    -1.0810    -1.2280 ha         1 YAN       0.122000
     11 HAD         -0.0150    -0.0240    -0.0030 ha         1 YAN       0.122000
     12 HAF         -0.0580    -0.0500     2.4910 ha         1 YAN       0.132000
@<TRIPOS>BOND
     1     1     2 1   
     2     2     3 ar  
     3     2     7 ar  
     4     3     4 ar  
     5     3     9 1   
     6     4     5 ar  
     7     4    10 1   
     8     5     6 ar  
     9     5    11 1   
    10     6     7 ar  
    11     6    12 1   
    12     7     8 1   
@<TRIPOS>SUBSTRUCTURE
     1 YAN         1 TEMP              0 ****  ****    0 ROOT
