@<TRIPOS>MOLECULE
YAT
   75    79     1     0     0
SMALL
abcg2


@<TRIPOS>ATOM
      1 CAA        205.7420   220.8520   155.5590 c3         1 YAT      -0.087100
      2 CAJ        206.6960   221.5330   156.5330 c3         1 YAT      -0.071400
      3 CBE        206.9340   223.0440   156.4080 c6         1 YAT      -0.093700
      4 CAQ        207.7590   223.4440   157.6460 c6         1 YAT       0.169800
      5 NBI        208.1930   224.8200   157.7340 n3         1 YAT      -0.716600
      6 CAN        207.1510   225.7730   158.0620 c6         1 YAT       0.173800
      7 CAM        207.7940   227.0800   158.4940 c6         1 YAT      -0.022100
      8 CAX        208.8600   227.5180   157.5280 ca         1 YAT      -0.090300
      9 CAG        209.3350   228.8310   157.5440 ca         1 YAT      -0.096000
     10 CAZ        210.3310   229.2550   156.6880 ca         1 YAT       0.067100
     11 OAT        210.7540   230.5500   156.7070 os         1 YAT      -0.346100
     12 CAC        211.8630   230.7900   157.5600 c3         1 YAT       0.150900
     13 CBB        210.8970   228.3460   155.7770 ca         1 YAT       0.128100
     14 OAV        211.8740   228.8270   154.9840 os         1 YAT      -0.330100
     15 CAE        212.4510   227.9580   154.0320 c3         1 YAT       0.140900
     16 CAI        210.4220   227.0440   155.7530 ca         1 YAT      -0.190000
     17 CBD        209.4150   226.6230   156.6250 ca         1 YAT      -0.039300
     18 CBH        208.9440   225.1930   156.5470 c6         1 YAT       0.228800
     19 CAP        208.1480   224.9340   155.2680 c6         1 YAT      -0.110400
     20 CBF        207.6860   223.4800   155.1390 c6         1 YAT      -0.044700
     21 CAO        206.8820   223.3210   153.8350 c3         1 YAT      -0.107400
     22 CBG        207.5990   222.5800   152.6830 c6         1 YAT       0.215800
     23 NAR        206.7030   222.2130   151.5960 n7         1 YAT      -0.853400
     24 CAK        206.1890   223.3650   150.8750 c6         1 YAT       0.158800
     25 CAL        207.3310   224.0260   150.1240 c6         1 YAT      -0.023100
     26 CAW        208.5720   224.1530   150.9680 ca         1 YAT      -0.086300
     27 CAF        209.6070   224.9930   150.5580 ca         1 YAT      -0.094000
     28 CBC        208.7420   223.4010   152.1260 ca         1 YAT      -0.030300
     29 CAH        209.9590   223.4560   152.8100 ca         1 YAT      -0.186000
     30 CBA        210.9810   224.3030   152.4060 ca         1 YAT       0.112100
     31 OAU        212.1610   224.4390   153.0430 os         1 YAT      -0.334100
     32 CAD        212.3810   223.6780   154.2120 c3         1 YAT       0.141900
     33 CAY        210.7870   225.0990   151.2670 ca         1 YAT       0.068100
     34 OAS        211.7460   225.9850   150.8770 os         1 YAT      -0.352100
     35 CAB        212.7630   225.4350   150.0540 c3         1 YAT       0.149900
     36 H3         205.5170   219.8420   155.9050 hc         1 YAT       0.032367
     37 H2         204.7940   221.3870   155.4790 hc         1 YAT       0.032367
     38 H1         206.1580   220.7570   154.5570 hc         1 YAT       0.032367
     39 H5         206.3190   221.3510   157.5450 hc         1 YAT       0.035700
     40 H4         207.6670   221.0260   156.4900 hc         1 YAT       0.035700
     41 H6         205.9650   223.5610   156.4400 hc         1 YAT       0.051700
     42 H8         207.2000   223.1990   158.5540 h1         1 YAT       0.049700
     43 H7         208.6590   222.8150   157.6580 h1         1 YAT       0.049700
     44 H11        206.4460   225.9600   157.2380 h1         1 YAT       0.033700
     45 H10        206.5580   225.3660   158.8840 h1         1 YAT       0.033700
     46 H12        208.2360   226.9510   159.4880 hc         1 YAT       0.052700
     47 H13        207.0310   227.8560   158.5950 hc         1 YAT       0.052700
     48 H14        208.9090   229.5480   158.2380 ha         1 YAT       0.122000
     49 H15        212.1010   231.8490   157.4900 h1         1 YAT       0.033367
     50 H17        211.6260   230.5520   158.6010 h1         1 YAT       0.033367
     51 H16        212.7430   230.2130   157.2630 h1         1 YAT       0.033367
     52 H18        213.2110   228.5340   153.5090 h1         1 YAT       0.045367
     53 H19        212.9290   227.0920   154.5000 h1         1 YAT       0.045367
     54 H20        211.7180   227.6020   153.3040 h1         1 YAT       0.045367
     55 H21        210.8410   226.3230   155.0610 ha         1 YAT       0.121000
     56 H22        209.8340   224.5490   156.5180 h1         1 YAT       0.059700
     57 H23        208.7470   225.2030   154.3950 hc         1 YAT       0.055700
     58 H24        207.2700   225.5880   155.2440 hc         1 YAT       0.055700
     59 H25        208.5820   222.8450   155.1020 hc         1 YAT       0.042700
     60 H26        206.5820   224.3130   153.4860 hc         1 YAT       0.046200
     61 H27        205.9470   222.7930   154.0290 hc         1 YAT       0.046200
     62 H28        208.0060   221.6480   153.0940 h1         1 YAT       0.066700
     63 H29        205.9320   221.6750   151.9730 hn         1 YAT       0.412000
     64 H31        205.7000   224.1050   151.5240 h1         1 YAT       0.033700
     65 H32        205.4320   223.0240   150.1680 h1         1 YAT       0.033700
     66 H33        207.5750   223.4300   149.2390 hc         1 YAT       0.053200
     67 H34        207.0190   225.0060   149.7560 hc         1 YAT       0.053200
     68 H35        209.4860   225.6000   149.6670 ha         1 YAT       0.124000
     69 H36        210.0890   222.8260   153.6790 ha         1 YAT       0.117000
     70 H37        213.3660   223.9540   154.5800 h1         1 YAT       0.041367
     71 H39        211.6420   223.8980   154.9880 h1         1 YAT       0.041367
     72 H38        212.3680   222.6030   154.0110 h1         1 YAT       0.041367
     73 H42        213.4580   226.2390   149.8200 h1         1 YAT       0.035033
     74 H40        213.3130   224.6350   150.5550 h1         1 YAT       0.035033
     75 H41        212.3520   225.0430   149.1190 h1         1 YAT       0.035033
@<TRIPOS>BOND
     1     1     2 1   
     2     1    36 1   
     3     1    37 1   
     4     1    38 1   
     5     2     3 1   
     6     2    39 1   
     7     2    40 1   
     8     3     4 1   
     9     3    20 1   
    10     3    41 1   
    11     4     5 1   
    12     4    42 1   
    13     4    43 1   
    14     5     6 1   
    15     5    18 1   
    16     6     7 1   
    17     6    44 1   
    18     6    45 1   
    19     7     8 1   
    20     7    46 1   
    21     7    47 1   
    22     8     9 ar  
    23     8    17 ar  
    24     9    10 ar  
    25     9    48 1   
    26    10    11 1   
    27    10    13 ar  
    28    11    12 1   
    29    12    49 1   
    30    12    50 1   
    31    12    51 1   
    32    13    14 1   
    33    13    16 ar  
    34    14    15 1   
    35    15    52 1   
    36    15    53 1   
    37    15    54 1   
    38    16    17 ar  
    39    16    55 1   
    40    17    18 1   
    41    18    19 1   
    42    18    56 1   
    43    19    20 1   
    44    19    57 1   
    45    19    58 1   
    46    20    21 1   
    47    20    59 1   
    48    21    22 1   
    49    21    60 1   
    50    21    61 1   
    51    22    23 1   
    52    22    28 1   
    53    22    62 1   
    54    23    24 1   
    55    23    63 1   
    56    24    25 1   
    57    24    64 1   
    58    24    65 1   
    59    25    26 1   
    60    25    66 1   
    61    25    67 1   
    62    26    27 ar  
    63    26    28 ar  
    64    27    33 ar  
    65    27    68 1   
    66    28    29 ar  
    67    29    30 ar  
    68    29    69 1   
    69    30    31 1   
    70    30    33 ar  
    71    31    32 1   
    72    32    70 1   
    73    32    71 1   
    74    32    72 1   
    75    33    34 1   
    76    34    35 1   
    77    35    73 1   
    78    35    74 1   
    79    35    75 1   
@<TRIPOS>SUBSTRUCTURE
     1 YAT         1 TEMP              0 ****  ****    0 ROOT
