@<TRIPOS>MOLECULE
YAT
   75    79     1     0     0
SMALL
No Charge or Current Charge


@<TRIPOS>ATOM
      1 CAA        205.4680   220.8000   155.5320 c3         1 YAT      -0.087100
      2 CAJ        206.5110   221.3640   156.5180 c3         1 YAT      -0.071400
      3 CBE        206.8600   222.8990   156.4740 c6         1 YAT      -0.093700
      4 CAQ        207.7270   223.1850   157.7450 c6         1 YAT       0.169800
      5 NBI        208.2100   224.5840   157.8690 n3         1 YAT      -0.716600
      6 CAN        207.1420   225.5540   158.2230 c6         1 YAT       0.173800
      7 CAM        207.7530   226.9300   158.5850 c6         1 YAT      -0.022100
      8 CAX        208.8840   227.3750   157.6480 ca         1 YAT      -0.090300
      9 CAG        209.3410   228.7030   157.6910 ca         1 YAT      -0.096000
     10 CAZ        210.3830   229.1470   156.8570 ca         1 YAT       0.067100
     11 OAT        210.7310   230.4860   157.0010 os         1 YAT      -0.346100
     12 CAC        211.7700   231.1460   156.2560 c3         1 YAT       0.150900
     13 CBB        210.9890   228.2270   155.9470 ca         1 YAT       0.128100
     14 OAV        212.0060   228.6310   155.0960 os         1 YAT      -0.330100
     15 CAE        212.5920   227.7640   154.1090 c3         1 YAT       0.140900
     16 CAI        210.5310   226.8890   155.9220 ca         1 YAT      -0.190000
     17 CBD        209.4890   226.4590   156.7640 ca         1 YAT      -0.039300
     18 CBH        208.9910   225.0060   156.6740 c6         1 YAT       0.228800
     19 CAP        208.1670   224.8220   155.3770 c6         1 YAT      -0.110400
     20 CBF        207.6300   223.3730   155.1870 c6         1 YAT      -0.044700
     21 CAO        206.8140   223.3230   153.8440 c3         1 YAT      -0.107400
     22 CBG        207.5430   222.6750   152.6170 c6         1 YAT       0.215800
     23 NAR        206.5520   222.3880   151.5480 n7         1 YAT      -0.853400
     24 CAK        206.0690   223.6050   150.8540 c6         1 YAT       0.158800
     25 CAL        207.2260   224.3680   150.1670 c6         1 YAT      -0.023100
     26 CAW        208.5370   224.3750   150.9630 ca         1 YAT      -0.086300
     27 CAF        209.6050   225.1700   150.5110 ca         1 YAT      -0.094000
     28 CBC        208.7110   223.5400   152.0880 ca         1 YAT      -0.030300
     29 CAH        209.9710   223.4960   152.7210 ca         1 YAT      -0.186000
     30 CBA        211.0460   224.3060   152.2830 ca         1 YAT       0.112100
     31 OAU        212.2560   224.2900   152.9580 os         1 YAT      -0.334100
     32 CAD        212.4880   223.4990   154.1380 c3         1 YAT       0.141900
     33 CAY        210.8560   225.1510   151.1500 ca         1 YAT       0.068100
     34 OAS        211.8280   225.9720   150.5900 os         1 YAT      -0.352100
     35 CAB        213.2360   225.8690   150.8700 c3         1 YAT       0.149900
     36 H3         205.1440   219.8050   155.8600 hc         1 YAT       0.032367
     37 H2         204.5820   221.4440   155.4850 hc         1 YAT       0.032367
     38 H1         205.8920   220.6860   154.5280 hc         1 YAT       0.032367
     39 H5         206.1350   221.1270   157.5220 hc         1 YAT       0.035700
     40 H4         207.4310   220.7760   156.4080 hc         1 YAT       0.035700
     41 H6         205.9140   223.4510   156.5580 hc         1 YAT       0.051700
     42 H8         207.1530   222.9110   158.6430 h1         1 YAT       0.049700
     43 H7         208.5970   222.5120   157.7240 h1         1 YAT       0.049700
     44 H11        206.4340   225.6810   157.3920 h1         1 YAT       0.033700
     45 H10        206.5600   225.1920   159.0830 h1         1 YAT       0.033700
     46 H12        208.1500   226.8780   159.6080 hc         1 YAT       0.052700
     47 H13        206.9560   227.6850   158.6040 hc         1 YAT       0.052700
     48 H14        208.8820   229.4050   158.3820 ha         1 YAT       0.122000
     49 H15        211.8460   232.1950   156.5650 h1         1 YAT       0.033367
     50 H17        212.7430   230.6720   156.4370 h1         1 YAT       0.033367
     51 H16        211.5530   231.1290   155.1810 h1         1 YAT       0.033367
     52 H18        213.3570   228.3030   153.5370 h1         1 YAT       0.045367
     53 H19        213.0730   226.8980   154.5830 h1         1 YAT       0.045367
     54 H20        211.8320   227.4040   153.4040 h1         1 YAT       0.045367
     55 H21        210.9670   226.1620   155.2440 ha         1 YAT       0.121000
     56 H22        209.8800   224.3620   156.5930 h1         1 YAT       0.059700
     57 H23        208.7890   225.1030   154.5180 hc         1 YAT       0.055700
     58 H24        207.3320   225.5340   155.3730 hc         1 YAT       0.055700
     59 H25        208.4880   222.6980   155.0750 hc         1 YAT       0.042700
     60 H26        206.5170   224.3420   153.5700 hc         1 YAT       0.046200
     61 H27        205.8530   222.8310   154.0000 hc         1 YAT       0.046200
     62 H28        207.9550   221.7110   152.9550 h1         1 YAT       0.066700
     63 H29        205.7520   221.9010   151.9670 hn         1 YAT       0.412000
     64 H31        205.5680   224.2700   151.5710 h1         1 YAT       0.033700
     65 H32        205.3200   223.3260   150.0990 h1         1 YAT       0.033700
     66 H33        207.4180   223.9040   149.1910 hc         1 YAT       0.053200
     67 H34        206.9050   225.3970   149.9550 hc         1 YAT       0.053200
     68 H35        209.4700   225.8010   149.6360 ha         1 YAT       0.124000
     69 H36        210.0970   222.8260   153.5630 ha         1 YAT       0.117000
     70 H37        213.5080   223.6630   154.5090 h1         1 YAT       0.041367
     71 H39        211.7880   223.7750   154.9370 h1         1 YAT       0.041367
     72 H38        212.3750   222.4300   153.9200 h1         1 YAT       0.041367
     73 H42        213.8010   226.5330   150.2050 h1         1 YAT       0.035033
     74 H40        213.4590   226.1670   151.9010 h1         1 YAT       0.035033
     75 H41        213.5920   224.8440   150.7070 h1         1 YAT       0.035033
@<TRIPOS>BOND
     1     1     2 1   
     2     1    36 1   
     3     1    37 1   
     4     1    38 1   
     5     2     3 1   
     6     2    39 1   
     7     2    40 1   
     8     3     4 1   
     9     3    20 1   
    10     3    41 1   
    11     4     5 1   
    12     4    42 1   
    13     4    43 1   
    14     5     6 1   
    15     5    18 1   
    16     6     7 1   
    17     6    44 1   
    18     6    45 1   
    19     7     8 1   
    20     7    46 1   
    21     7    47 1   
    22     8     9 ar  
    23     8    17 ar  
    24     9    10 ar  
    25     9    48 1   
    26    10    11 1   
    27    10    13 ar  
    28    11    12 1   
    29    12    49 1   
    30    12    50 1   
    31    12    51 1   
    32    13    14 1   
    33    13    16 ar  
    34    14    15 1   
    35    15    52 1   
    36    15    53 1   
    37    15    54 1   
    38    16    17 ar  
    39    16    55 1   
    40    17    18 1   
    41    18    19 1   
    42    18    56 1   
    43    19    20 1   
    44    19    57 1   
    45    19    58 1   
    46    20    21 1   
    47    20    59 1   
    48    21    22 1   
    49    21    60 1   
    50    21    61 1   
    51    22    23 1   
    52    22    28 1   
    53    22    62 1   
    54    23    24 1   
    55    23    63 1   
    56    24    25 1   
    57    24    64 1   
    58    24    65 1   
    59    25    26 1   
    60    25    66 1   
    61    25    67 1   
    62    26    27 ar  
    63    26    28 ar  
    64    27    33 ar  
    65    27    68 1   
    66    28    29 ar  
    67    29    30 ar  
    68    29    69 1   
    69    30    31 1   
    70    30    33 ar  
    71    31    32 1   
    72    32    70 1   
    73    32    71 1   
    74    32    72 1   
    75    33    34 1   
    76    34    35 1   
    77    35    73 1   
    78    35    74 1   
    79    35    75 1   
@<TRIPOS>SUBSTRUCTURE
     1 YAT         1 TEMP              0 ****  ****    0 ROOT
