@<TRIPOS>MOLECULE
YAU
   67    70     1     0     0
SMALL
abcg2


@<TRIPOS>ATOM
      1 CL1        -11.8540    -0.8500     1.4100 cl         1 YAU      -0.208000
      2 C26        -10.3290    -0.6030     0.6180 ca         1 YAU       0.121000
      3 C25         -9.8850     0.6880     0.3790 ca         1 YAU      -0.100500
      4 C24         -8.6670     0.8720    -0.2580 ca         1 YAU      -0.093000
      5 C27         -9.5760    -1.7000     0.2310 ca         1 YAU      -0.100500
      6 C28         -8.3590    -1.4920    -0.4020 ca         1 YAU      -0.093000
      7 C23         -7.8860    -0.2090    -0.6600 ca         1 YAU      -0.069300
      8 C22         -6.5580     0.0170    -1.3190 c3         1 YAU      -0.069100
      9 C21         -5.4350     0.2300    -0.2980 c3         1 YAU       0.180300
     10 O3          -5.3220    -0.8540     0.5940 oh         1 YAU      -0.632000
     11 C20         -4.1170     0.5150    -1.0040 c3         1 YAU      -0.192400
     12 C19         -3.0320     0.9850    -0.0550 c          1 YAU       0.611100
     13 O2          -3.2890     1.4700     1.0410 o          1 YAU      -0.593100
     14 N           -1.7680     0.8720    -0.4910 n          1 YAU      -0.425800
     15 C2          -1.3520     0.4090    -1.8100 c5         1 YAU       0.113000
     16 C3          -0.6470     1.3100     0.3250 c5         1 YAU       0.109000
     17 C4           0.5730     0.8020    -0.4430 c5         1 YAU      -0.037400
     18 C1           0.1020     0.8610    -1.9030 c5         1 YAU      -0.076700
     19 C            0.9490     0.0200    -2.8310 c3         1 YAU       0.168600
     20 O            0.4070     0.0990    -4.1300 oh         1 YAU      -0.667000
     21 C5           1.8370     1.5630    -0.1560 ca         1 YAU      -0.054300
     22 C18          2.9380     0.9020     0.3690 ca         1 YAU      -0.103000
     23 C9           4.1300     1.5710     0.6440 ca         1 YAU      -0.017000
     24 C8           4.1900     2.9400     0.3860 ca         1 YAU       0.079000
     25 CL           5.6530     3.8130     0.7010 cl         1 YAU      -0.204000
     26 C7           3.0940     3.6200    -0.1220 ca         1 YAU      -0.081000
     27 C6           1.9270     2.9320    -0.3990 ca         1 YAU      -0.112000
     28 N1           5.2370     0.9180     1.1940 ns         1 YAU      -0.161000
     29 C10          5.6960    -0.3120     0.8370 c          1 YAU       0.608100
     30 O1           5.1700    -1.0060    -0.0080 o          1 YAU      -0.566100
     31 C11          6.9210    -0.7470     1.6240 c3         1 YAU      -0.110100
     32 C12          7.6420    -1.8870     0.9740 ca         1 YAU      -0.092300
     33 C17          8.7340    -1.6540     0.1440 ca         1 YAU      -0.065500
     34 C16          9.4020    -2.6990    -0.4790 ca         1 YAU      -0.150500
     35 C15          8.9560    -3.9880    -0.2590 ca         1 YAU       0.177000
     36 F            9.5950    -5.0090    -0.8540 f          1 YAU      -0.178000
     37 C14          7.8770    -4.2610     0.5590 ca         1 YAU      -0.150500
     38 C13          7.2250    -3.2000     1.1710 ca         1 YAU      -0.065500
     39 H25        -10.4800     1.5400     0.6790 ha         1 YAU       0.128500
     40 H27         -9.9310    -2.7040     0.4170 ha         1 YAU       0.128500
     41 H24         -8.3240     1.8820    -0.4490 ha         1 YAU       0.113000
     42 H28         -7.7780    -2.3530    -0.7090 ha         1 YAU       0.113000
     43 H221        -6.3120    -0.8290    -1.9690 hc         1 YAU       0.050200
     44 H222        -6.6100     0.8980    -1.9640 hc         1 YAU       0.050200
     45 H21         -5.6970     1.0930     0.3200 h1         1 YAU       0.099700
     46 H3          -5.1290    -1.6490     0.0860 ho         1 YAU       0.429000
     47 H201        -3.7950    -0.3740    -1.5550 hc         1 YAU       0.061200
     48 H202        -4.2610     1.2960    -1.7580 hc         1 YAU       0.061200
     49 H21C        -1.4310    -0.6820    -1.8880 h1         1 YAU       0.051200
     50 H22C        -1.9640     0.8450    -2.5990 h1         1 YAU       0.051200
     51 H31C        -0.6350     2.4000     0.4170 h1         1 YAU       0.061200
     52 H32C        -0.7000     0.8960     1.3330 h1         1 YAU       0.061200
     53 H1           0.1260     1.9040    -2.2390 hc         1 YAU       0.072700
     54 H4           0.7330    -0.2480    -0.1790 hc         1 YAU       0.067700
     55 HC1          1.9860     0.3810    -2.8030 h1         1 YAU       0.030700
     56 HC2          0.9610    -1.0150    -2.4610 h1         1 YAU       0.030700
     57 H            0.9070    -0.4900    -4.7020 ho         1 YAU       0.449000
     58 H18          2.8640    -0.1540     0.5880 ha         1 YAU       0.137000
     59 H6           1.0840     3.4790    -0.8040 ha         1 YAU       0.124000
     60 HA           5.8020     1.4500     1.8400 hn         1 YAU       0.163000
     61 H7           3.1600     4.6830    -0.3090 ha         1 YAU       0.133000
     62 H111         7.5940     0.1020     1.7650 hc         1 YAU       0.068700
     63 H112         6.5770    -1.0310     2.6240 hc         1 YAU       0.068700
     64 H17          9.0770    -0.6390    -0.0210 ha         1 YAU       0.116500
     65 H13          6.3810    -3.4060     1.8170 ha         1 YAU       0.116500
     66 H16         10.2540    -2.5140    -1.1200 ha         1 YAU       0.133000
     67 H14          7.5500    -5.2800     0.7160 ha         1 YAU       0.133000
@<TRIPOS>BOND
     1     1     2 1   
     2     2     3 ar  
     3     2     5 ar  
     4     3     4 ar  
     5     3    39 1   
     6     4     7 ar  
     7     4    41 1   
     8     5     6 ar  
     9     5    40 1   
    10     6     7 ar  
    11     6    42 1   
    12     7     8 1   
    13     8     9 1   
    14     8    43 1   
    15     8    44 1   
    16     9    10 1   
    17     9    11 1   
    18     9    45 1   
    19    10    46 1   
    20    11    12 1   
    21    11    47 1   
    22    11    48 1   
    23    12    13 2   
    24    12    14 1   
    25    14    15 1   
    26    14    16 1   
    27    15    18 1   
    28    15    49 1   
    29    15    50 1   
    30    16    17 1   
    31    16    51 1   
    32    16    52 1   
    33    17    18 1   
    34    17    21 1   
    35    17    54 1   
    36    18    19 1   
    37    18    53 1   
    38    19    20 1   
    39    19    55 1   
    40    19    56 1   
    41    20    57 1   
    42    21    22 ar  
    43    21    27 ar  
    44    22    23 ar  
    45    22    58 1   
    46    23    24 ar  
    47    23    28 1   
    48    24    25 1   
    49    24    26 ar  
    50    26    27 ar  
    51    26    61 1   
    52    27    59 1   
    53    28    29 1   
    54    28    60 1   
    55    29    30 2   
    56    29    31 1   
    57    31    32 1   
    58    31    62 1   
    59    31    63 1   
    60    32    33 ar  
    61    32    38 ar  
    62    33    34 ar  
    63    33    64 1   
    64    34    35 ar  
    65    34    66 1   
    66    35    36 1   
    67    35    37 ar  
    68    37    38 ar  
    69    37    67 1   
    70    38    65 1   
@<TRIPOS>SUBSTRUCTURE
     1 YAU         1 TEMP              0 ****  ****    0 ROOT
