@<TRIPOS>MOLECULE
YAU
   67    70     1     0     0
SMALL
No Charge or Current Charge


@<TRIPOS>ATOM
      1 Cl1         -9.9500    -3.2490     2.0610 cl         1 YAU      -0.208000
      2 C26         -8.9780    -2.1370     1.1060 ca         1 YAU       0.121000
      3 C25         -8.8120    -0.8090     1.5300 ca         1 YAU      -0.100500
      4 C24         -8.0350     0.0800     0.7660 ca         1 YAU      -0.093000
      5 C27         -8.3700    -2.5780    -0.0800 ca         1 YAU      -0.100500
      6 C28         -7.5930    -1.6900    -0.8440 ca         1 YAU      -0.093000
      7 C23         -7.4200    -0.3560    -0.4240 ca         1 YAU      -0.069300
      8 C22         -6.5750     0.6100    -1.2480 c3         1 YAU      -0.069100
      9 C21         -5.2180     0.9430    -0.5830 c3         1 YAU       0.180300
     10 O3          -4.4670    -0.2650    -0.4330 oh         1 YAU      -0.632000
     11 C20         -4.3920     1.9490    -1.4060 c3         1 YAU      -0.192400
     12 C19         -3.1450     2.3970    -0.6290 c          1 YAU       0.611100
     13 O2          -3.2540     3.2180     0.2730 o          1 YAU      -0.593100
     14 N           -1.8740     1.8830    -0.9670 n          1 YAU      -0.425800
     15 C2          -1.6200     0.8870    -2.0380 c5         1 YAU       0.113000
     16 C3          -0.6500     2.2580    -0.2250 c5         1 YAU       0.109000
     17 C4           0.3130     1.1160    -0.6510 c5         1 YAU      -0.037400
     18 C1          -0.0690     0.9090    -2.1450 c5         1 YAU      -0.076700
     19 C            0.5530    -0.3480    -2.7950 c3         1 YAU       0.168600
     20 O            0.1120    -0.4720    -4.1530 oh         1 YAU      -0.667000
     21 C5           1.7700     1.5920    -0.5410 ca         1 YAU      -0.054300
     22 C18          2.6800     0.8300     0.2210 ca         1 YAU      -0.103000
     23 C9           4.0340     1.2160     0.3510 ca         1 YAU      -0.017000
     24 C8           4.4690     2.3940    -0.2900 ca         1 YAU       0.079000
     25 Cl           6.1460     2.9260    -0.1560 cl         1 YAU      -0.204000
     26 C7           3.5750     3.1600    -1.0520 ca         1 YAU      -0.081000
     27 C6           2.2360     2.7620    -1.1810 ca         1 YAU      -0.112000
     28 N1           4.9820     0.4770     1.1140 ns         1 YAU      -0.161000
     29 C10          4.9390    -0.7810     1.7000 c          1 YAU       0.608100
     30 O1           3.9870    -1.5480     1.6200 o          1 YAU      -0.566100
     31 C11          6.2220    -1.1680     2.4480 c3         1 YAU      -0.110100
     32 C12          7.1010    -2.0650     1.5820 ca         1 YAU      -0.092300
     33 C17          8.0600    -1.4980     0.7180 ca         1 YAU      -0.065500
     34 C16          8.8650    -2.3260    -0.0850 ca         1 YAU      -0.150500
     35 C15          8.7120    -3.7190    -0.0270 ca         1 YAU       0.177000
     36 F            9.4860    -4.5130    -0.7990 f          1 YAU      -0.178000
     37 C14          7.7590    -4.2920     0.8290 ca         1 YAU      -0.150500
     38 C13          6.9530    -3.4660     1.6330 ca         1 YAU      -0.065500
     39 H25         -9.2850    -0.4690     2.4480 ha         1 YAU       0.128500
     40 H27         -8.5010    -3.6070    -0.4070 ha         1 YAU       0.128500
     41 H24         -7.9130     1.1090     1.1000 ha         1 YAU       0.113000
     42 H28         -7.1260    -2.0410    -1.7620 ha         1 YAU       0.113000
     43 H221        -6.3950     0.2040    -2.2510 hc         1 YAU       0.050200
     44 H222        -7.1340     1.5430    -1.3970 hc         1 YAU       0.050200
     45 H21         -5.4240     1.3880     0.4030 h1         1 YAU       0.099700
     46 H3          -5.0790    -0.9290    -0.0490 ho         1 YAU       0.429000
     47 H201        -4.1380     1.4860    -2.3630 hc         1 YAU       0.061200
     48 H202        -5.0150     2.8330    -1.5850 hc         1 YAU       0.061200
     49 H21C        -1.9930    -0.1020    -1.7420 h1         1 YAU       0.051200
     50 H22C        -2.0810     1.1660    -2.9940 h1         1 YAU       0.051200
     51 H31C        -0.3090     3.2530    -0.5370 h1         1 YAU       0.061200
     52 H32C        -0.8060     2.2710     0.8620 h1         1 YAU       0.061200
     53 H1           0.2370     1.7640    -2.7580 hc         1 YAU       0.072700
     54 H4           0.1170     0.2090    -0.0650 hc         1 YAU       0.067700
     55 HC1          1.6480    -0.2630    -2.7570 h1         1 YAU       0.030700
     56 HC2          0.2640    -1.2340    -2.2150 h1         1 YAU       0.030700
     57 H            0.5500    -1.2710    -4.5240 ho         1 YAU       0.449000
     58 H18          2.3120    -0.0620     0.7170 ha         1 YAU       0.137000
     59 H6           1.5660     3.3740    -1.7800 ha         1 YAU       0.124000
     60 HA           5.8600     0.9630     1.2470 hn         1 YAU       0.163000
     61 H7           3.9230     4.0640    -1.5460 ha         1 YAU       0.133000
     62 H111         6.7850    -0.2630     2.7080 hc         1 YAU       0.068700
     63 H112         5.9460    -1.6980     3.3670 hc         1 YAU       0.068700
     64 H17          8.1840    -0.4180     0.6660 ha         1 YAU       0.116500
     65 H13          6.2130    -3.9150     2.2920 ha         1 YAU       0.116500
     66 H16          9.6050    -1.8900    -0.7510 ha         1 YAU       0.133000
     67 H14          7.6450    -5.3720     0.8670 ha         1 YAU       0.133000
@<TRIPOS>BOND
     1     1     2 1   
     2     2     3 ar  
     3     2     5 ar  
     4     3     4 ar  
     5     3    39 1   
     6     4     7 ar  
     7     4    41 1   
     8     5     6 ar  
     9     5    40 1   
    10     6     7 ar  
    11     6    42 1   
    12     7     8 1   
    13     8     9 1   
    14     8    43 1   
    15     8    44 1   
    16     9    10 1   
    17     9    11 1   
    18     9    45 1   
    19    10    46 1   
    20    11    12 1   
    21    11    47 1   
    22    11    48 1   
    23    12    13 2   
    24    12    14 1   
    25    14    15 1   
    26    14    16 1   
    27    15    18 1   
    28    15    49 1   
    29    15    50 1   
    30    16    17 1   
    31    16    51 1   
    32    16    52 1   
    33    17    18 1   
    34    17    21 1   
    35    17    54 1   
    36    18    19 1   
    37    18    53 1   
    38    19    20 1   
    39    19    55 1   
    40    19    56 1   
    41    20    57 1   
    42    21    22 ar  
    43    21    27 ar  
    44    22    23 ar  
    45    22    58 1   
    46    23    24 ar  
    47    23    28 1   
    48    24    25 1   
    49    24    26 ar  
    50    26    27 ar  
    51    26    61 1   
    52    27    59 1   
    53    28    29 1   
    54    28    60 1   
    55    29    30 2   
    56    29    31 1   
    57    31    32 1   
    58    31    62 1   
    59    31    63 1   
    60    32    33 ar  
    61    32    38 ar  
    62    33    34 ar  
    63    33    64 1   
    64    34    35 ar  
    65    34    66 1   
    66    35    36 1   
    67    35    37 ar  
    68    37    38 ar  
    69    37    67 1   
    70    38    65 1   
@<TRIPOS>SUBSTRUCTURE
     1 YAU         1 TEMP              0 ****  ****    0 ROOT
