@<TRIPOS>MOLECULE
YAV
   96   101     1     0     0
SMALL
bcc


@<TRIPOS>ATOM
      1 C10          3.5420    17.4580    -5.2820 c3         1 YAV      -0.186700
      2 C15          2.3100    14.5640    -4.2230 ca         1 YAV      -0.033500
      3 C17          1.6840    12.6490    -2.7180 c3         1 YAV      -0.032300
      4 C20          1.7990    14.4530    -6.5760 ca         1 YAV       0.073600
      5 C22          4.0550    20.2610    -9.7920 ca         1 YAV      -0.097500
      6 C24          4.0730    21.0000   -12.0810 ca         1 YAV      -0.119500
      7 C26          3.6790    19.9210   -16.2490 c3         1 YAV       0.085000
      8 C03          3.4460    19.8200   -12.4770 ca         1 YAV      -0.154600
      9 C04          3.1090    18.8680   -11.5230 ca         1 YAV      -0.065500
     10 C05          3.4240    19.0730   -10.1790 ca         1 YAV       0.058000
     11 C06          3.1070    18.0880    -9.2070 cg         1 YAV      -0.157000
     12 C07          2.8490    17.2590    -8.3660 ch         1 YAV      -0.038300
     13 C08          2.5760    16.3280    -7.3530 cd         1 YAV       0.080400
     14 C09          2.8510    16.3760    -6.0210 cc         1 YAV       0.040600
     15 C11          2.6120    18.3360    -4.3950 c          1 YAV       0.940100
     16 C14          2.3460    15.1410    -5.4950 ca         1 YAV      -0.101800
     17 C16          1.7400    13.3120    -4.0650 ca         1 YAV      -0.131800
     18 C18          1.1980    12.6520    -5.1850 ca         1 YAV      -0.114000
     19 C19          1.2150    13.2030    -6.4540 ca         1 YAV      -0.145000
     20 C23          4.3690    21.2160   -10.7420 ca         1 YAV      -0.141000
     21 C27          2.7780    21.0430   -16.7670 c3         1 YAV       0.107400
     22 C29          3.5490    21.3540   -18.9830 c3         1 YAV       0.117900
     23 C30          3.0490    21.3990   -20.4120 c3         1 YAV       0.117900
     24 C32          2.3020    23.6420   -20.5230 c3         1 YAV       0.107400
     25 C33          1.2560    24.4550   -21.2630 c3         1 YAV       0.085000
     26 C35          2.0450    24.5980   -23.5770 c          1 YAV       0.678200
     27 C36          1.8570    24.0910   -24.9740 ca         1 YAV      -0.154600
     28 C37          0.6000    23.8040   -25.5010 ca         1 YAV      -0.119500
     29 C38          0.4810    23.3420   -26.8050 ca         1 YAV      -0.141000
     30 C39          1.6070    23.1470   -27.5840 ca         1 YAV      -0.097500
     31 C40          2.8740    23.4340   -27.0650 ca         1 YAV       0.058000
     32 C41          4.0370    23.2190   -27.8510 cg         1 YAV      -0.157000
     33 C42          5.0260    23.0190   -28.5160 ch         1 YAV      -0.038300
     34 C43          6.1880    22.7830   -29.2670 cd         1 YAV       0.080400
     35 C44          7.4810    23.1380   -29.0330 cc         1 YAV       0.040600
     36 C45          8.0180    23.9000   -27.8830 c3         1 YAV      -0.186700
     37 C46          8.4270    25.3670   -28.2080 c          1 YAV       0.940100
     38 C49          8.2160    22.6060   -30.1430 ca         1 YAV      -0.101800
     39 C50          9.5630    22.6130   -30.5150 ca         1 YAV      -0.033500
     40 C51          9.9430    21.9850   -31.6890 ca         1 YAV      -0.131800
     41 C52         11.3810    21.9580   -32.1240 c3         1 YAV      -0.032300
     42 C53          8.9650    21.3610   -32.4880 ca         1 YAV      -0.114000
     43 C54          7.6240    21.3430   -32.1460 ca         1 YAV      -0.145000
     44 C55          7.2810    21.9760   -30.9630 ca         1 YAV       0.073600
     45 C57          2.9880    23.9230   -25.7630 ca         1 YAV      -0.065500
     46 N25          3.9080    20.0480   -14.8280 ns         1 YAV      -0.570900
     47 N34          1.1720    24.1300   -22.6700 ns         1 YAV      -0.570900
     48 O01          2.0810    18.8900   -14.1780 o          1 YAV      -0.597100
     49 O12          3.1870    19.2670    -3.8020 o          1 YAV      -0.822800
     50 O13          1.4070    18.0360    -4.3570 o          1 YAV      -0.822800
     51 O21          1.9330    15.1710    -7.7100 os         1 YAV      -0.179200
     52 O28          2.5060    20.9320   -18.1390 os         1 YAV      -0.397600
     53 O31          1.9760    22.2770   -20.6340 os         1 YAV      -0.397600
     54 O47          8.9910    25.9670   -27.2750 o          1 YAV      -0.822800
     55 O48          8.1490    25.8050   -29.3370 o          1 YAV      -0.822800
     56 O56          6.0450    22.0810   -30.4360 os         1 YAV      -0.179200
     57 O58          2.9440    25.3800   -23.3030 o          1 YAV      -0.597100
     58 H1           4.3130    17.0230    -4.6380 hc         1 YAV       0.041450
     59 H2           4.0720    18.1090    -5.9830 hc         1 YAV       0.041450
     60 H3           2.7290    15.0860    -3.3720 ha         1 YAV       0.149500
     61 H4           2.2200    11.6980    -2.7220 hc         1 YAV       0.030200
     62 H5           2.1280    13.2760    -1.9460 hc         1 YAV       0.030200
     63 H6           0.6560    12.4350    -2.4220 hc         1 YAV       0.030200
     64 H7           4.2920    20.4270    -8.7500 ha         1 YAV       0.146000
     65 H8           4.3110    21.7710   -12.8030 ha         1 YAV       0.122000
     66 H9           3.2280    18.9520   -16.4640 h1         1 YAV       0.058450
     67 H10          4.6510    19.9440   -16.7410 h1         1 YAV       0.058450
     68 H11          2.6110    17.9560   -11.8220 ha         1 YAV       0.162500
     69 H12          0.7510    11.6740    -5.0490 ha         1 YAV       0.112000
     70 H13          0.7940    12.6800    -7.3030 ha         1 YAV       0.133000
     71 H14          4.8450    22.1390   -10.4380 ha         1 YAV       0.127000
     72 H15          3.2340    22.0140   -16.5290 h1         1 YAV       0.044950
     73 H16          1.8180    20.9980   -16.2480 h1         1 YAV       0.044950
     74 H17          4.4080    20.6690   -18.9590 h1         1 YAV       0.039200
     75 H18          3.9270    22.3380   -18.6690 h1         1 YAV       0.039200
     76 H19          2.7020    20.4060   -20.7070 h1         1 YAV       0.039200
     77 H20          3.9040    21.6500   -21.0550 h1         1 YAV       0.039200
     78 H21          3.2940    23.8440   -20.9470 h1         1 YAV       0.044950
     79 H22          2.3260    23.9730   -19.4770 h1         1 YAV       0.044950
     80 H23          1.4820    25.5140   -21.1440 h1         1 YAV       0.058450
     81 H24          0.2710    24.2870   -20.8270 h1         1 YAV       0.058450
     82 H25         -0.2960    23.9590   -24.9120 ha         1 YAV       0.122000
     83 H26         -0.4980    23.1320   -27.2140 ha         1 YAV       0.127000
     84 H27          1.5130    22.7760   -28.5960 ha         1 YAV       0.146000
     85 H28          8.8900    23.3810   -27.4740 hc         1 YAV       0.041450
     86 H29          7.2810    23.9250   -27.0750 hc         1 YAV       0.041450
     87 H30         10.3030    23.1000   -29.8900 ha         1 YAV       0.149500
     88 H31         11.7530    20.9350   -32.1990 hc         1 YAV       0.030200
     89 H32         11.5090    22.4170   -33.1050 hc         1 YAV       0.030200
     90 H33         12.0200    22.4910   -31.4220 hc         1 YAV       0.030200
     91 H34          9.2740    20.8750   -33.4060 ha         1 YAV       0.112000
     92 H35          6.8870    20.8600   -32.7730 ha         1 YAV       0.133000
     93 H36          3.9670    24.1530   -25.3630 ha         1 YAV       0.162500
     94 H37          4.7460    20.5210   -14.5340 hn         1 YAV       0.318500
     95 H38          0.5670    23.3680   -22.9270 hn         1 YAV       0.318500
     96 C02          3.0750    19.5470   -13.9020 c          1 YAV       0.678200
@<TRIPOS>BOND
     1     1    14 1   
     2     1    15 1   
     3     1    58 1   
     4     1    59 1   
     5     2    16 ar  
     6     2    17 ar  
     7     2    60 1   
     8     3    17 1   
     9     3    61 1   
    10     3    62 1   
    11     3    63 1   
    12     4    16 ar  
    13     4    19 ar  
    14     4    51 1   
    15     5    10 ar  
    16     5    20 ar  
    17     5    64 1   
    18     6     8 ar  
    19     6    20 ar  
    20     6    65 1   
    21     7    21 1   
    22     7    46 1   
    23     7    66 1   
    24     7    67 1   
    25     8     9 ar  
    26     8    96 1   
    27     9    10 ar  
    28     9    68 1   
    29    10    11 1   
    30    11    12 3   
    31    12    13 1   
    32    13    14 2   
    33    13    51 1   
    34    14    16 1   
    35    15    49 1   
    36    15    50 1   
    37    17    18 ar  
    38    18    19 ar  
    39    18    69 1   
    40    19    70 1   
    41    20    71 1   
    42    21    52 1   
    43    21    72 1   
    44    21    73 1   
    45    22    23 1   
    46    22    52 1   
    47    22    74 1   
    48    22    75 1   
    49    23    53 1   
    50    23    76 1   
    51    23    77 1   
    52    24    25 1   
    53    24    53 1   
    54    24    78 1   
    55    24    79 1   
    56    25    47 1   
    57    25    80 1   
    58    25    81 1   
    59    26    27 1   
    60    26    47 1   
    61    26    57 2   
    62    27    28 ar  
    63    27    45 ar  
    64    28    29 ar  
    65    28    82 1   
    66    29    30 ar  
    67    29    83 1   
    68    30    31 ar  
    69    30    84 1   
    70    31    32 1   
    71    31    45 ar  
    72    32    33 3   
    73    33    34 1   
    74    34    35 2   
    75    34    56 1   
    76    35    36 1   
    77    35    38 1   
    78    36    37 1   
    79    36    85 1   
    80    36    86 1   
    81    37    54 1   
    82    37    55 1   
    83    38    39 ar  
    84    38    44 ar  
    85    39    40 ar  
    86    39    87 1   
    87    40    41 1   
    88    40    42 ar  
    89    41    88 1   
    90    41    89 1   
    91    41    90 1   
    92    42    43 ar  
    93    42    91 1   
    94    43    44 ar  
    95    43    92 1   
    96    44    56 1   
    97    45    93 1   
    98    46    94 1   
    99    46    96 1   
   100    47    95 1   
   101    48    96 2   
@<TRIPOS>SUBSTRUCTURE
     1 YAV         1 TEMP              0 ****  ****    0 ROOT
