@<TRIPOS>MOLECULE
YAV
   96   101     1     0     0
SMALL
No Charge or Current Charge


@<TRIPOS>ATOM
      1 C10          2.9010    17.0150    -4.5460 c3         1 YAV      -0.186700
      2 C15          0.3400    15.1130    -3.7430 ca         1 YAV      -0.015500
      3 C17         -1.1790    13.6510    -2.3200 c3         1 YAV      -0.032300
      4 C20         -0.2150    15.5550    -6.0540 ca         1 YAV       0.073600
      5 C22          4.3870    20.1790    -8.7900 ca         1 YAV      -0.079500
      6 C24          5.2260    20.6640   -11.0260 ca         1 YAV      -0.101500
      7 C26          5.4370    19.8480   -15.2960 c3         1 YAV       0.085000
      8 C03          4.4800    19.5830   -11.5590 ca         1 YAV      -0.154600
      9 C04          3.6890    18.8100   -10.6760 ca         1 YAV      -0.047500
     10 C05          3.6420    19.1040    -9.3010 ca         1 YAV       0.058000
     11 C06          2.8370    18.3080    -8.4210 cg         1 YAV      -0.157000
     12 C07          2.1640    17.6320    -7.6600 ch         1 YAV      -0.038300
     13 C08          1.4460    16.8480    -6.7190 cd         1 YAV       0.080400
     14 C09          1.7320    16.5650    -5.3860 cc         1 YAV       0.040600
     15 C11          2.5660    18.2930    -3.7720 c          1 YAV       0.729500
     16 C14          0.6240    15.7160    -4.9770 ca         1 YAV      -0.101800
     17 C16         -0.8340    14.3280    -3.6390 ca         1 YAV      -0.131800
     18 C18         -1.6870    14.1670    -4.7620 ca         1 YAV      -0.096000
     19 C19         -1.3810    14.7880    -5.9930 ca         1 YAV      -0.127000
     20 C23          5.1770    20.9560    -9.6520 ca         1 YAV      -0.123000
     21 C27          4.1910    20.3320   -16.0810 c3         1 YAV       0.130600
     22 C29          5.3400    20.8190   -18.1930 c3         1 YAV       0.141100
     23 C30          5.2840    20.4590   -19.7030 c3         1 YAV       0.141100
     24 C32          3.7870    22.2780   -20.3980 c3         1 YAV       0.130600
     25 C33          2.4670    22.4960   -21.1720 c3         1 YAV       0.085000
     26 C35          3.1850    22.5340   -23.5920 c          1 YAV       0.611200
     27 C36          3.1550    21.7860   -24.9090 ca         1 YAV      -0.154600
     28 C37          2.4700    20.5540   -25.0650 ca         1 YAV      -0.101500
     29 C38          2.4650    19.8920   -26.3040 ca         1 YAV      -0.123000
     30 C39          3.1390    20.4430   -27.4050 ca         1 YAV      -0.079500
     31 C40          3.8230    21.6630   -27.2690 ca         1 YAV       0.058000
     32 C41          4.5110    22.2270   -28.3930 cg         1 YAV      -0.157000
     33 C42          5.0990    22.6950   -29.3550 ch         1 YAV      -0.038300
     34 C43          5.8510    23.2110   -30.4430 cd         1 YAV       0.080400
     35 C44          6.9890    24.0140   -30.4450 cc         1 YAV       0.040600
     36 C45          7.7600    24.5760   -29.2780 c3         1 YAV      -0.186700
     37 C46          7.2740    25.9830   -28.9200 c          1 YAV       0.729500
     38 C49          7.2730    24.1920   -31.8610 ca         1 YAV      -0.101800
     39 C50          8.2900    24.9090   -32.5080 ca         1 YAV      -0.015500
     40 C51          8.3140    24.9030   -33.9240 ca         1 YAV      -0.131800
     41 C52          9.4020    25.6640   -34.6660 c3         1 YAV      -0.032300
     42 C53          7.3280    24.1840   -34.6510 ca         1 YAV      -0.096000
     43 C54          6.3130    23.4730   -33.9760 ca         1 YAV      -0.127000
     44 C55          6.3230    23.5050   -32.5800 ca         1 YAV       0.073600
     45 C57          3.8300    22.3280   -26.0290 ca         1 YAV      -0.047500
     46 N25          5.2970    20.0140   -13.8430 ns         1 YAV      -0.503900
     47 N34          2.5010    21.9620   -22.5420 ns         1 YAV      -0.503900
     48 O01          3.8550    18.2990   -13.4890 o          1 YAV      -0.597100
     49 O12          2.7380    19.3650    -4.3320 o          1 YAV      -0.717500
     50 O13          2.0240    18.1780    -2.6830 o          1 YAV      -0.717500
     51 O21          0.2810    16.2400    -7.1160 os         1 YAV      -0.179200
     52 O28          4.3440    20.0440   -17.4880 os         1 YAV      -0.444000
     53 O31          4.0230    20.8570   -20.2940 os         1 YAV      -0.444000
     54 O47          7.7750    26.9290   -29.5090 o          1 YAV      -0.717500
     55 O48          6.3230    26.0850   -28.1600 o          1 YAV      -0.717500
     56 O56          5.4570    22.9070   -31.7220 os         1 YAV      -0.179200
     57 O58          3.7800    23.5950   -23.4590 o          1 YAV      -0.597100
     58 H1           3.1130    16.1990    -3.8460 hc         1 YAV       0.041450
     59 H2           3.7280    17.2070    -5.2390 hc         1 YAV       0.041450
     60 H3           1.0040    15.2470    -2.8920 ha         1 YAV       0.131500
     61 H4          -0.7210    12.6570    -2.2620 hc         1 YAV       0.030200
     62 H5          -0.8200    14.2370    -1.4650 hc         1 YAV       0.030200
     63 H6          -2.2620    13.5290    -2.2040 hc         1 YAV       0.030200
     64 H7           4.3550    20.4120    -7.7270 ha         1 YAV       0.128000
     65 H8           5.8480    21.2890   -11.6600 ha         1 YAV       0.104000
     66 H9           5.6160    18.7870   -15.5160 h1         1 YAV       0.058450
     67 H10          6.3210    20.4150   -15.6160 h1         1 YAV       0.058450
     68 H11          3.1060    17.9730   -11.0570 ha         1 YAV       0.144500
     69 H12         -2.5870    13.5610    -4.6800 ha         1 YAV       0.094000
     70 H13         -2.0260    14.6750    -6.8610 ha         1 YAV       0.115000
     71 H14          5.7530    21.7890    -9.2540 ha         1 YAV       0.109000
     72 H15          4.0430    21.4080   -15.9150 h1         1 YAV       0.044950
     73 H16          3.3050    19.8120   -15.6950 h1         1 YAV       0.044950
     74 H17          6.3460    20.5810   -17.8250 h1         1 YAV       0.039200
     75 H18          5.1810    21.8960   -18.0510 h1         1 YAV       0.039200
     76 H19          5.4230    19.3750   -19.8100 h1         1 YAV       0.039200
     77 H20          6.1190    20.9490   -20.2200 h1         1 YAV       0.039200
     78 H21          4.6100    22.7750   -20.9280 h1         1 YAV       0.044950
     79 H22          3.6900    22.7370   -19.4050 h1         1 YAV       0.044950
     80 H23          2.2500    23.5710   -21.2150 h1         1 YAV       0.058450
     81 H24          1.6460    22.0130   -20.6260 h1         1 YAV       0.058450
     82 H25          1.9370    20.0950   -24.2360 ha         1 YAV       0.104000
     83 H26          1.9370    18.9470   -26.4120 ha         1 YAV       0.109000
     84 H27          3.1300    19.9240   -28.3610 ha         1 YAV       0.128000
     85 H28          8.8110    24.6110   -29.5880 hc         1 YAV       0.041450
     86 H29          7.5880    23.8980   -28.4340 hc         1 YAV       0.041450
     87 H30          9.0370    25.4540   -31.9350 ha         1 YAV       0.131500
     88 H31         10.2860    25.0340   -34.8150 hc         1 YAV       0.030200
     89 H32          9.0560    25.9950   -35.6530 hc         1 YAV       0.030200
     90 H33          9.7150    26.5570   -34.1110 hc         1 YAV       0.030200
     91 H34          7.3510    24.1790   -35.7380 ha         1 YAV       0.094000
     92 H35          5.5510    22.9210   -34.5200 ha         1 YAV       0.115000
     93 H36          4.3630    23.2720   -25.9390 ha         1 YAV       0.144500
     94 H37          5.8080    20.7620   -13.3910 hn         1 YAV       0.318500
     95 H38          2.0510    21.0750   -22.7210 hn         1 YAV       0.318500
     96 C02          4.5030    19.2300   -13.0320 c          1 YAV       0.611200
@<TRIPOS>BOND
     1     1    14 1   
     2     1    15 1   
     3     1    58 1   
     4     1    59 1   
     5     2    16 ar  
     6     2    17 ar  
     7     2    60 1   
     8     3    17 1   
     9     3    61 1   
    10     3    62 1   
    11     3    63 1   
    12     4    16 ar  
    13     4    19 ar  
    14     4    51 1   
    15     5    10 ar  
    16     5    20 ar  
    17     5    64 1   
    18     6     8 ar  
    19     6    20 ar  
    20     6    65 1   
    21     7    21 1   
    22     7    46 1   
    23     7    66 1   
    24     7    67 1   
    25     8     9 ar  
    26     8    96 1   
    27     9    10 ar  
    28     9    68 1   
    29    10    11 1   
    30    11    12 3   
    31    12    13 1   
    32    13    14 2   
    33    13    51 1   
    34    14    16 1   
    35    15    49 1   
    36    15    50 1   
    37    17    18 ar  
    38    18    19 ar  
    39    18    69 1   
    40    19    70 1   
    41    20    71 1   
    42    21    52 1   
    43    21    72 1   
    44    21    73 1   
    45    22    23 1   
    46    22    52 1   
    47    22    74 1   
    48    22    75 1   
    49    23    53 1   
    50    23    76 1   
    51    23    77 1   
    52    24    25 1   
    53    24    53 1   
    54    24    78 1   
    55    24    79 1   
    56    25    47 1   
    57    25    80 1   
    58    25    81 1   
    59    26    27 1   
    60    26    47 1   
    61    26    57 2   
    62    27    28 ar  
    63    27    45 ar  
    64    28    29 ar  
    65    28    82 1   
    66    29    30 ar  
    67    29    83 1   
    68    30    31 ar  
    69    30    84 1   
    70    31    32 1   
    71    31    45 ar  
    72    32    33 3   
    73    33    34 1   
    74    34    35 2   
    75    34    56 1   
    76    35    36 1   
    77    35    38 1   
    78    36    37 1   
    79    36    85 1   
    80    36    86 1   
    81    37    54 1   
    82    37    55 1   
    83    38    39 ar  
    84    38    44 ar  
    85    39    40 ar  
    86    39    87 1   
    87    40    41 1   
    88    40    42 ar  
    89    41    88 1   
    90    41    89 1   
    91    41    90 1   
    92    42    43 ar  
    93    42    91 1   
    94    43    44 ar  
    95    43    92 1   
    96    44    56 1   
    97    45    93 1   
    98    46    94 1   
    99    46    96 1   
   100    47    95 1   
   101    48    96 2   
@<TRIPOS>SUBSTRUCTURE
     1 YAV         1 TEMP              0 ****  ****    0 ROOT
