@<TRIPOS>MOLECULE
YAZ
   19    19     1     0     0
SMALL
No Charge or Current Charge


@<TRIPOS>ATOM
      1 C1           4.1850    -0.3720    -0.0320 c          1 YAZ       0.695200
      2 C7           0.2540     0.1370     0.0380 ca         1 YAZ      -0.020800
      3 C2           2.8270     0.2610    -0.0200 ce         1 YAZ      -0.210200
      4 C8          -0.8380    -0.7550     0.0850 ca         1 YAZ      -0.080000
      5 C3           1.6290    -0.4020     0.0230 cf         1 YAZ      -0.240200
      6 C9          -2.1570    -0.2710     0.1000 ca         1 YAZ       0.028000
      7 C4          -2.4010     1.1160     0.0680 ca         1 YAZ       0.113100
      8 C5          -1.3210     2.0100     0.0210 ca         1 YAZ      -0.143000
      9 C6          -0.0010     1.5250     0.0060 ca         1 YAZ      -0.083000
     10 O2           4.2710    -1.5900    -0.0010 o          1 YAZ      -0.721500
     11 O4          -3.6780     1.5990     0.0820 oh         1 YAZ      -0.543100
     12 Cl13        -3.4990    -1.4150     0.1590 cl         1 YAZ      -0.245000
     13 O1           5.1530     0.3700    -0.0730 o          1 YAZ      -0.721500
     14 H1           2.8400     1.3470    -0.0500 ha         1 YAZ       0.142000
     15 H2          -0.6650    -1.8280     0.1100 ha         1 YAZ       0.129000
     16 H3           1.6750    -1.4940     0.0510 ha         1 YAZ       0.192000
     17 H4          -1.5050     3.0810    -0.0040 ha         1 YAZ       0.117000
     18 H5           0.8180     2.2390    -0.0310 ha         1 YAZ       0.124000
     19 H6          -4.2870     0.8280     0.1160 ho         1 YAZ       0.467000
@<TRIPOS>BOND
     1     1     3 1   
     2     1    10 1   
     3     1    13 1   
     4     2     4 ar  
     5     2     5 1   
     6     2     9 ar  
     7     3     5 2   
     8     3    14 1   
     9     4     6 ar  
    10     4    15 1   
    11     5    16 1   
    12     6     7 ar  
    13     6    12 1   
    14     7     8 ar  
    15     7    11 1   
    16     8     9 ar  
    17     8    17 1   
    18     9    18 1   
    19    11    19 1   
@<TRIPOS>SUBSTRUCTURE
     1 YAZ         1 TEMP              0 ****  ****    0 ROOT
