@<TRIPOS>MOLECULE
YAZ
   19    19     1     0     0
SMALL
bcc


@<TRIPOS>ATOM
      1 C1           4.1370    -0.3810    -0.0260 c          1 YAZ       0.905800
      2 C7           0.2760     0.1380     0.0310 ca         1 YAZ      -0.020800
      3 C2           2.7780     0.2800    -0.0120 ce         1 YAZ      -0.160200
      4 C8          -0.8020    -0.7440     0.0810 ca         1 YAZ      -0.098000
      5 C3           1.6330    -0.4070     0.0170 cf         1 YAZ      -0.190200
      6 C9          -2.1040    -0.2740     0.1000 ca         1 YAZ      -0.063600
      7 C4          -2.3860     1.0900     0.0680 ca         1 YAZ       0.113100
      8 C5          -1.3070     1.9740     0.0150 ca         1 YAZ      -0.161000
      9 C6          -0.0100     1.5080    -0.0020 ca         1 YAZ      -0.101000
     10 O2           4.1800    -1.6280     0.0030 o          1 YAZ      -0.826800
     11 O4          -3.6240     1.5980     0.0850 oh         1 YAZ      -0.504100
     12 CL13        -3.4260    -1.3980     0.1620 cl         1 YAZ      -0.153400
     13 O1           5.1110     0.3990    -0.0670 o          1 YAZ      -0.826800
     14 H1           2.7710     1.3660    -0.0290 ha         1 YAZ       0.092000
     15 H2          -0.6260    -1.8120     0.1070 ha         1 YAZ       0.147000
     16 H3           1.6980    -1.4920     0.0340 ha         1 YAZ       0.142000
     17 H4          -1.5040     3.0390    -0.0090 ha         1 YAZ       0.135000
     18 H5           0.7940     2.2310    -0.0420 ha         1 YAZ       0.142000
     19 H6          -4.2900     0.8990     0.1300 ho         1 YAZ       0.428000
@<TRIPOS>BOND
     1     1     3 1   
     2     1    10 1   
     3     1    13 1   
     4     2     4 ar  
     5     2     5 1   
     6     2     9 ar  
     7     3     5 2   
     8     3    14 1   
     9     4     6 ar  
    10     4    15 1   
    11     5    16 1   
    12     6     7 ar  
    13     6    12 1   
    14     7     8 ar  
    15     7    11 1   
    16     8     9 ar  
    17     8    17 1   
    18     9    18 1   
    19    11    19 1   
@<TRIPOS>SUBSTRUCTURE
     1 YAZ         1 TEMP              0 ****  ****    0 ROOT
