@<TRIPOS>MOLECULE
YB0
   83    87     1     0     0
SMALL
abcg2


@<TRIPOS>ATOM
      1 C5         -34.0970    -1.6880    16.0930 c5         1 YB0       0.137300
      2 C6         -33.6110    -3.1120    15.8750 c3         1 YB0       0.058600
      3 C8         -34.2380    -3.9840    13.1970 c3         1 YB0       0.017600
      4 N12        -33.6940    -3.8650     9.8940 nu         1 YB0      -0.938400
      5 C13        -33.5630    -2.9450     8.7780 c3         1 YB0       0.243800
      6 C15        -35.4680    -1.3660     9.3910 c6         1 YB0      -0.069400
      7 C17        -34.8320     1.0010    10.0160 c6         1 YB0      -0.077400
      8 C22        -33.3900     0.2870    15.0460 c5         1 YB0       0.321300
      9 C24        -31.4400    -0.0870    13.4760 cc         1 YB0       0.413700
     10 C26        -30.7850     1.9260    13.1430 ca         1 YB0      -0.088600
     11 C11        -34.7200    -4.7420    10.0690 c2         1 YB0       0.836100
     12 C14        -33.9580    -1.5020     9.1100 c6         1 YB0      -0.090700
     13 C16        -35.8010    -0.1500    10.2710 c6         1 YB0      -0.071900
     14 C18        -33.3900     0.6040    10.3940 c6         1 YB0      -0.071900
     15 C19        -33.1500    -0.9110    10.2680 c6         1 YB0      -0.069400
     16 C2         -35.2600    -1.1890    15.2110 c5         1 YB0       0.103300
     17 C27        -31.8500     2.0050    14.0480 ca         1 YB0       0.142500
     18 C29        -31.7230     4.2070    14.1660 ca         1 YB0       0.177900
     19 C3         -34.5530    -0.2580    14.2190 c5         1 YB0       0.135300
     20 C31        -30.2060     3.1560    12.7560 ca         1 YB0       0.438900
     21 C33        -28.6330     2.2680    11.0360 c3         1 YB0       0.228800
     22 C34        -29.5170     1.9700     9.8260 c3         1 YB0      -0.104400
     23 C35        -28.9020     0.8970     8.9220 c3         1 YB0      -0.027100
     24 C36        -29.7570     0.5960     7.7170 ca         1 YB0      -0.077300
     25 C37        -30.4630    -0.6020     7.6150 ca         1 YB0      -0.107500
     26 C38        -31.2720    -0.8650     6.5120 ca         1 YB0      -0.111000
     27 C39        -31.3900     0.0720     5.4920 ca         1 YB0      -0.111000
     28 C40        -30.6890     1.2730     5.5820 ca         1 YB0      -0.111000
     29 C41        -29.8810     1.5290     6.6830 ca         1 YB0      -0.107500
     30 C9         -33.8120    -5.2060    12.3700 c3         1 YB0       0.225800
     31 N10        -34.6660    -5.4900    11.2330 nu         1 YB0      -0.964400
     32 N20        -35.6460    -4.8850     9.1710 n2         1 YB0      -0.910100
     33 N23        -32.2580     0.7070    14.2510 na         1 YB0      -0.295300
     34 N25        -30.5470     0.5990    12.8090 nd         1 YB0      -0.560100
     35 N28        -32.3580     3.1150    14.5910 nb         1 YB0      -0.213000
     36 N30        -30.7120     4.2870    13.3020 nb         1 YB0      -0.301000
     37 N32        -29.1800     3.3040    11.9000 nu         1 YB0      -0.910100
     38 O1         -36.1920    -0.4200    15.9610 oh         1 YB0      -0.688000
     39 O21        -33.0000    -0.7650    15.9020 os         1 YB0      -0.446000
     40 O4         -35.3030     0.8290    13.7280 oh         1 YB0      -0.677000
     41 S7         -32.8410    -3.4930    14.2700 ss         1 YB0      -0.437000
     42 H1         -34.4160    -1.6160    17.1370 h1         1 YB0       0.071700
     43 H2         -34.4290    -3.8110    16.0530 h1         1 YB0       0.084200
     44 H3         -32.8310    -3.3220    16.6080 h1         1 YB0       0.084200
     45 H4         -34.5090    -3.1550    12.5450 h1         1 YB0       0.065200
     46 H5         -35.0950    -4.2260    13.8250 h1         1 YB0       0.065200
     47 H6         -33.0210    -3.7640    10.6320 hn         1 YB0       0.483000
     48 H7         -34.1770    -3.3240     7.9630 h1         1 YB0       0.060700
     49 H8         -32.5220    -2.9640     8.4490 h1         1 YB0       0.060700
     50 H9         -36.0000    -1.2960     8.4380 hc         1 YB0       0.039200
     51 H10        -35.8260    -2.2720     9.8810 hc         1 YB0       0.039200
     52 H11        -35.1320     1.8920    10.5730 hc         1 YB0       0.043200
     53 H12        -34.8790     1.2680     8.9560 hc         1 YB0       0.043200
     54 H13        -33.7150     1.1670    15.6050 h2         1 YB0       0.123700
     55 H14        -31.5630    -1.1590    13.4570 h5         1 YB0       0.081800
     56 H15        -33.7150    -0.9180     8.2150 hc         1 YB0       0.058700
     57 H16        -36.8340     0.1650    10.1050 hc         1 YB0       0.035700
     58 H17        -35.7340    -0.4520    11.3210 hc         1 YB0       0.035700
     59 H18        -33.1780     0.9190    11.4170 hc         1 YB0       0.035700
     60 H19        -32.6870     1.1390     9.7520 hc         1 YB0       0.035700
     61 H20        -33.4410    -1.4090    11.1970 hc         1 YB0       0.039200
     62 H21        -32.0840    -1.1090    10.1330 hc         1 YB0       0.039200
     63 H22        -35.7660    -2.0120    14.7050 h1         1 YB0       0.047700
     64 H23        -32.0750     5.1520    14.5680 h5         1 YB0       0.047100
     65 H24        -34.1530    -0.8630    13.4010 h1         1 YB0       0.056700
     66 H25        -28.4850     1.3620    11.6200 h1         1 YB0       0.063700
     67 H26        -27.6530     2.6160    10.7060 h1         1 YB0       0.063700
     68 H27        -29.6700     2.8910     9.2570 hc         1 YB0       0.053200
     69 H28        -30.4970     1.6370    10.1720 hc         1 YB0       0.053200
     70 H29        -28.7550    -0.0190     9.5000 hc         1 YB0       0.048700
     71 H30        -27.9130     1.2330     8.5950 hc         1 YB0       0.048700
     72 H31        -30.3820    -1.3370     8.4070 ha         1 YB0       0.110000
     73 H32        -31.8090    -1.8020     6.4510 ha         1 YB0       0.111500
     74 H33        -32.0180    -0.1300     4.6340 ha         1 YB0       0.113000
     75 H34        -30.7700     2.0090     4.7910 ha         1 YB0       0.111500
     76 H35        -29.3370     2.4650     6.7430 ha         1 YB0       0.110000
     77 H36        -33.8100    -6.0880    13.0110 h1         1 YB0       0.064700
     78 H37        -32.7810    -5.0870    12.0300 h1         1 YB0       0.064700
     79 H38        -35.5190    -5.9850    11.4440 hn         1 YB0       0.475000
     80 H39        -36.3100    -5.5950     9.4680 hn         1 YB0       0.373400
     81 H40        -28.9590     4.2630    11.6740 hn         1 YB0       0.499000
     82 H41        -36.6340    -1.0100    16.5840 ho         1 YB0       0.502000
     83 H42        -35.9310     0.5110    13.0670 ho         1 YB0       0.514000
@<TRIPOS>BOND
     1     1     2 1   
     2     1    16 1   
     3     1    39 1   
     4     1    42 1   
     5     2    41 1   
     6     2    43 1   
     7     2    44 1   
     8     3    30 1   
     9     3    41 1   
    10     3    45 1   
    11     3    46 1   
    12     4     5 1   
    13     4    11 1   
    14     4    47 1   
    15     5    12 1   
    16     5    48 1   
    17     5    49 1   
    18     6    12 1   
    19     6    13 1   
    20     6    50 1   
    21     6    51 1   
    22     7    13 1   
    23     7    14 1   
    24     7    52 1   
    25     7    53 1   
    26     8    19 1   
    27     8    33 1   
    28     8    39 1   
    29     8    54 1   
    30     9    33 1   
    31     9    34 2   
    32     9    55 1   
    33    10    17 ar  
    34    10    20 ar  
    35    10    34 1   
    36    11    31 1   
    37    11    32 2   
    38    12    15 1   
    39    12    56 1   
    40    13    57 1   
    41    13    58 1   
    42    14    15 1   
    43    14    59 1   
    44    14    60 1   
    45    15    61 1   
    46    15    62 1   
    47    16    19 1   
    48    16    38 1   
    49    16    63 1   
    50    17    33 1   
    51    17    35 ar  
    52    18    35 ar  
    53    18    36 ar  
    54    18    64 1   
    55    19    40 1   
    56    19    65 1   
    57    20    36 ar  
    58    20    37 1   
    59    21    22 1   
    60    21    37 1   
    61    21    66 1   
    62    21    67 1   
    63    22    23 1   
    64    22    68 1   
    65    22    69 1   
    66    23    24 1   
    67    23    70 1   
    68    23    71 1   
    69    24    25 ar  
    70    24    29 ar  
    71    25    26 ar  
    72    25    72 1   
    73    26    27 ar  
    74    26    73 1   
    75    27    28 ar  
    76    27    74 1   
    77    28    29 ar  
    78    28    75 1   
    79    29    76 1   
    80    30    31 1   
    81    30    77 1   
    82    30    78 1   
    83    31    79 1   
    84    32    80 1   
    85    37    81 1   
    86    38    82 1   
    87    40    83 1   
@<TRIPOS>SUBSTRUCTURE
     1 YB0         1 TEMP              0 ****  ****    0 ROOT
