@<TRIPOS>MOLECULE
YB0
   83    87     1     0     0
SMALL
No Charge or Current Charge


@<TRIPOS>ATOM
      1 C5         -34.4440    -1.3550    16.1020 c5         1 YB0       0.137300
      2 C6         -34.0220    -2.8480    15.9880 c3         1 YB0       0.058600
      3 C8         -34.0790    -3.9970    13.3460 c3         1 YB0       0.017600
      4 N12        -33.9080    -4.4950     9.3540 nu         1 YB0      -0.938400
      5 C13        -34.0080    -3.5310     8.2460 c3         1 YB0       0.243800
      6 C15        -35.5710    -1.5660     8.9410 c6         1 YB0      -0.069400
      7 C17        -34.3860     0.6540     9.5030 c6         1 YB0      -0.077400
      8 C22        -33.4980     0.4460    14.9060 c5         1 YB0       0.321300
      9 C24        -31.4380    -0.0210    13.5060 cc         1 YB0       0.413700
     10 C26        -30.5910     1.9630    13.4030 ca         1 YB0      -0.088600
     11 C11        -34.8120    -4.6830    10.2960 c2         1 YB0       0.836100
     12 C14        -34.1040    -2.0290     8.6790 c6         1 YB0      -0.090700
     13 C16        -35.6640    -0.2010     9.6790 c6         1 YB0      -0.071900
     14 C18        -33.1320    -0.0750    10.0590 c6         1 YB0      -0.071900
     15 C19        -33.1670    -1.6180     9.8520 c6         1 YB0      -0.069400
     16 C2         -35.4810    -0.8590    15.0310 c5         1 YB0       0.103300
     17 C27        -31.6770     2.0650    14.2410 ca         1 YB0       0.142500
     18 C29        -31.2750     4.2970    14.5080 ca         1 YB0       0.177900
     19 C3         -34.5450    -0.2290    13.9670 c5         1 YB0       0.135300
     20 C31        -29.8490     3.1430    13.1240 ca         1 YB0       0.438900
     21 C33        -28.2990     2.2610    11.2620 c3         1 YB0       0.228800
     22 C34        -29.3050     2.1830    10.0920 c3         1 YB0      -0.104400
     23 C35        -28.8630     1.1940     8.9870 c3         1 YB0      -0.027100
     24 C36        -29.9570     0.8690     7.9710 ca         1 YB0      -0.077300
     25 C37        -30.1960    -0.4720     7.6060 ca         1 YB0      -0.107500
     26 C38        -31.2030    -0.7900     6.6780 ca         1 YB0      -0.111000
     27 C39        -31.9820     0.2290     6.1070 ca         1 YB0      -0.111000
     28 C40        -31.7460     1.5680     6.4590 ca         1 YB0      -0.111000
     29 C41        -30.7360     1.8880     7.3830 ca         1 YB0      -0.107500
     30 C9         -33.2940    -4.7570    12.2560 c3         1 YB0       0.225800
     31 N10        -34.1820    -5.3590    11.2440 nu         1 YB0      -0.964400
     32 N20        -35.9500    -5.0810     9.9770 n2         1 YB0      -0.910100
     33 N23        -32.2190     0.8140    14.3050 na         1 YB0      -0.295300
     34 N25        -30.4160     0.6490    12.9470 nd         1 YB0      -0.560100
     35 N28        -32.0460     3.2280    14.8110 nb         1 YB0      -0.213000
     36 N30        -30.1960     4.3120    13.6930 nb         1 YB0      -0.301000
     37 N32        -28.7380     3.2280    12.2840 nu         1 YB0      -0.910100
     38 O1         -36.3740     0.1470    15.5520 oh         1 YB0      -0.688000
     39 O21        -33.2740    -0.5000    15.9740 os         1 YB0      -0.446000
     40 O4         -35.2850     0.6990    13.1660 oh         1 YB0      -0.677000
     41 S7         -32.8930    -3.2610    14.5670 ss         1 YB0      -0.437000
     42 H1         -34.8600    -1.2170    17.1090 h1         1 YB0       0.071700
     43 H2         -34.9190    -3.4790    15.9440 h1         1 YB0       0.084200
     44 H3         -33.4920    -3.1100    16.9130 h1         1 YB0       0.084200
     45 H4         -34.6820    -3.2010    12.8910 h1         1 YB0       0.065200
     46 H5         -34.7480    -4.6950    13.8640 h1         1 YB0       0.065200
     47 H6         -32.9930    -4.7290     9.7030 hn         1 YB0       0.483000
     48 H7         -34.8680    -3.7710     7.6050 h1         1 YB0       0.060700
     49 H8         -33.1110    -3.6330     7.6190 h1         1 YB0       0.060700
     50 H9         -36.0990    -1.4980     7.9800 hc         1 YB0       0.039200
     51 H10        -36.1140    -2.3150     9.5300 hc         1 YB0       0.039200
     52 H11        -34.5060     1.6230    10.0070 hc         1 YB0       0.043200
     53 H12        -34.2420     0.8790     8.4370 hc         1 YB0       0.043200
     54 H13        -33.9290     1.3640    15.3260 h2         1 YB0       0.123700
     55 H14        -31.6630    -1.0700    13.3620 h5         1 YB0       0.081800
     56 H15        -33.7630    -1.4820     7.7890 hc         1 YB0       0.058700
     57 H16        -36.5430     0.3550     9.3270 hc         1 YB0       0.035700
     58 H17        -35.8280    -0.3840    10.7490 hc         1 YB0       0.035700
     59 H18        -33.0290     0.1390    11.1310 hc         1 YB0       0.035700
     60 H19        -32.2370     0.3450     9.5830 hc         1 YB0       0.035700
     61 H20        -33.5180    -2.0890    10.7800 hc         1 YB0       0.039200
     62 H21        -32.1470    -1.9910     9.6810 hc         1 YB0       0.039200
     63 H22        -36.0550    -1.6960    14.6090 h1         1 YB0       0.047700
     64 H23        -31.5560     5.2450    14.9640 h5         1 YB0       0.047100
     65 H24        -34.0770    -0.9950    13.3360 h1         1 YB0       0.056700
     66 H25        -28.1650     1.2650    11.7070 h1         1 YB0       0.063700
     67 H26        -27.3230     2.5680    10.8610 h1         1 YB0       0.063700
     68 H27        -29.4310     3.1830     9.6620 hc         1 YB0       0.053200
     69 H28        -30.2850     1.8730    10.4720 hc         1 YB0       0.053200
     70 H29        -28.5220     0.2690     9.4690 hc         1 YB0       0.048700
     71 H30        -27.9880     1.6060     8.4690 hc         1 YB0       0.048700
     72 H31        -29.6050    -1.2720     8.0440 ha         1 YB0       0.110000
     73 H32        -31.3810    -1.8280     6.4050 ha         1 YB0       0.111500
     74 H33        -32.7640    -0.0170     5.3930 ha         1 YB0       0.113000
     75 H34        -32.3460     2.3600     6.0140 ha         1 YB0       0.111500
     76 H35        -30.5630     2.9310     7.6370 ha         1 YB0       0.110000
     77 H36        -32.7050    -5.5460    12.7440 h1         1 YB0       0.064700
     78 H37        -32.5810    -4.0690    11.7810 h1         1 YB0       0.064700
     79 H38        -34.5910    -6.2620    11.4520 hn         1 YB0       0.475000
     80 H39        -36.3590    -5.5010    10.8150 hn         1 YB0       0.373400
     81 H40        -28.3290     4.1620    12.2370 hn         1 YB0       0.499000
     82 H41        -36.9940    -0.2970    16.1790 ho         1 YB0       0.502000
     83 H42        -36.0450     0.9420    13.7520 ho         1 YB0       0.514000
@<TRIPOS>BOND
     1     1     2 1   
     2     1    16 1   
     3     1    39 1   
     4     1    42 1   
     5     2    41 1   
     6     2    43 1   
     7     2    44 1   
     8     3    30 1   
     9     3    41 1   
    10     3    45 1   
    11     3    46 1   
    12     4     5 1   
    13     4    11 1   
    14     4    47 1   
    15     5    12 1   
    16     5    48 1   
    17     5    49 1   
    18     6    12 1   
    19     6    13 1   
    20     6    50 1   
    21     6    51 1   
    22     7    13 1   
    23     7    14 1   
    24     7    52 1   
    25     7    53 1   
    26     8    19 1   
    27     8    33 1   
    28     8    39 1   
    29     8    54 1   
    30     9    33 1   
    31     9    34 2   
    32     9    55 1   
    33    10    17 ar  
    34    10    20 ar  
    35    10    34 1   
    36    11    31 1   
    37    11    32 2   
    38    12    15 1   
    39    12    56 1   
    40    13    57 1   
    41    13    58 1   
    42    14    15 1   
    43    14    59 1   
    44    14    60 1   
    45    15    61 1   
    46    15    62 1   
    47    16    19 1   
    48    16    38 1   
    49    16    63 1   
    50    17    33 1   
    51    17    35 ar  
    52    18    35 ar  
    53    18    36 ar  
    54    18    64 1   
    55    19    40 1   
    56    19    65 1   
    57    20    36 ar  
    58    20    37 1   
    59    21    22 1   
    60    21    37 1   
    61    21    66 1   
    62    21    67 1   
    63    22    23 1   
    64    22    68 1   
    65    22    69 1   
    66    23    24 1   
    67    23    70 1   
    68    23    71 1   
    69    24    25 ar  
    70    24    29 ar  
    71    25    26 ar  
    72    25    72 1   
    73    26    27 ar  
    74    26    73 1   
    75    27    28 ar  
    76    27    74 1   
    77    28    29 ar  
    78    28    75 1   
    79    29    76 1   
    80    30    31 1   
    81    30    77 1   
    82    30    78 1   
    83    31    79 1   
    84    32    80 1   
    85    37    81 1   
    86    38    82 1   
    87    40    83 1   
@<TRIPOS>SUBSTRUCTURE
     1 YB0         1 TEMP              0 ****  ****    0 ROOT
