@<TRIPOS>MOLECULE
YB3
   49    53     1     0     0
SMALL
No Charge or Current Charge


@<TRIPOS>ATOM
      1 C12         10.1480    29.6770    33.7060 ca         1 YB3      -0.148000
      2 C13          8.8310    29.9390    34.1340 ca         1 YB3       0.355000
      3 C14          7.8060    29.9970    33.1720 ca         1 YB3      -0.182000
      4 C16          9.4130    29.5410    31.3790 ca         1 YB3      -0.010000
      5 C19          8.6450    29.4190    29.1930 ca         1 YB3       0.176500
      6 C21          7.0840    29.8540    30.8310 ca         1 YB3       0.128900
      7 C22          8.6140    29.4200    37.9520 c6         1 YB3       0.151800
      8 C23          9.3700    29.5330    36.5840 c6         1 YB3       0.186300
      9 C26          7.0880    31.2150    37.3210 c6         1 YB3       0.151800
     10 C1           8.9680    29.2210    27.7740 cc         1 YB3      -0.153500
     11 C2           9.9120    28.2130    27.3260 cc         1 YB3      -0.127000
     12 C3          10.1790    28.0390    25.9870 cd         1 YB3       0.197000
     13 C5           9.4770    28.8930    25.0860 cd         1 YB3      -0.110000
     14 N6           8.5890    29.8290    25.5320 na         1 YB3       0.136100
     15 C7           8.2780    30.0450    26.8760 cd         1 YB3      -0.075000
     16 C8           8.0370    30.5230    24.4890 cd         1 YB3      -0.275100
     17 C9           8.6550    29.9420    23.4010 cc         1 YB3       0.070400
     18 C10          8.4540    30.2870    21.9520 c3         1 YB3      -0.019900
     19 N11          9.5360    28.9440    23.7650 nc         1 YB3      -0.267600
     20 C15          8.0940    29.8000    31.8080 ca         1 YB3      -0.094000
     21 C17         10.4360    29.4810    32.3420 ca         1 YB3      -0.049000
     22 N18          9.6770    29.3540    30.0680 nb         1 YB3      -0.148000
     23 N20          7.3560    29.6660    29.5260 nb         1 YB3      -0.183000
     24 N24          8.5240    30.1390    35.5020 nh         1 YB3      -0.829400
     25 C25          7.7980    31.3800    35.9340 c6         1 YB3       0.186300
     26 N27          8.0000    30.7120    38.3970 n3         1 YB3      -0.711600
     27 C28          8.9980    31.7150    38.8400 c3         1 YB3       0.150100
     28 F4          11.0460    27.1200    25.5240 f          1 YB3      -0.148000
     29 H12         10.9600    29.6350    34.4240 ha         1 YB3       0.117000
     30 H14          6.7830    30.1820    33.4860 ha         1 YB3       0.119000
     31 H21          6.0450    30.0500    31.0930 h4         1 YB3       0.023100
     32 H22B         9.3090    29.0380    38.7140 h1         1 YB3       0.062700
     33 H23B         9.6930    28.5230    36.2900 h1         1 YB3       0.047450
     34 H23A        10.2790    30.1350    36.7290 h1         1 YB3       0.047450
     35 H26A         6.6420    32.1770    37.6100 h1         1 YB3       0.062700
     36 H26B         6.2520    30.5120    37.1900 h1         1 YB3       0.062700
     37 H2          10.4110    27.5870    28.0590 ha         1 YB3       0.160000
     38 H7           7.5560    30.8150    27.1210 h4         1 YB3       0.168000
     39 H8           7.3050    31.3160    24.5850 h4         1 YB3       0.233000
     40 H10C         9.3960    30.6150    21.4950 hc         1 YB3       0.048700
     41 H10B         8.0880    29.4200    21.3910 hc         1 YB3       0.048700
     42 H10A         7.7240    31.0960    21.8370 hc         1 YB3       0.048700
     43 H17         11.4600    29.2830    32.0320 ha         1 YB3       0.135000
     44 H25A         8.5060    32.2190    35.9940 h1         1 YB3       0.047450
     45 H25B         7.0350    31.6630    35.1950 h1         1 YB3       0.047450
     46 H28C         9.6080    31.3160    39.6620 h1         1 YB3       0.032700
     47 H28B         9.6730    32.0020    38.0230 h1         1 YB3       0.032700
     48 H28A         8.4970    32.6230    39.2030 h1         1 YB3       0.032700
     49 H22A         7.8270    28.6590    37.8400 h1         1 YB3       0.062700
@<TRIPOS>BOND
     1     1     2 ar  
     2     1    21 ar  
     3     1    29 1   
     4     2     3 ar  
     5     2    24 1   
     6     3    20 ar  
     7     3    30 1   
     8     4    20 ar  
     9     4    21 ar  
    10     4    22 ar  
    11     5    10 1   
    12     5    22 ar  
    13     5    23 ar  
    14     6    20 ar  
    15     6    23 ar  
    16     6    31 1   
    17     7     8 1   
    18     7    26 1   
    19     7    32 1   
    20     7    49 1   
    21     8    24 1   
    22     8    33 1   
    23     8    34 1   
    24     9    25 1   
    25     9    26 1   
    26     9    35 1   
    27     9    36 1   
    28    10    11 1   
    29    10    15 2   
    30    11    12 2   
    31    11    37 1   
    32    12    13 1   
    33    12    28 1   
    34    13    14 1   
    35    13    19 2   
    36    14    15 1   
    37    14    16 1   
    38    15    38 1   
    39    16    17 2   
    40    16    39 1   
    41    17    18 1   
    42    17    19 1   
    43    18    40 1   
    44    18    41 1   
    45    18    42 1   
    46    21    43 1   
    47    24    25 1   
    48    25    44 1   
    49    25    45 1   
    50    26    27 1   
    51    27    46 1   
    52    27    47 1   
    53    27    48 1   
@<TRIPOS>SUBSTRUCTURE
     1 YB3         1 TEMP              0 ****  ****    0 ROOT
