@<TRIPOS>MOLECULE
YB3
   49    53     1     0     0
SMALL
abcg2


@<TRIPOS>ATOM
      1 C12         10.1140    29.3990    33.7120 ca         1 YB3      -0.148000
      2 C13          8.9690    30.1300    34.1600 ca         1 YB3       0.355000
      3 C14          8.1190    30.6300    33.1790 ca         1 YB3      -0.182000
      4 C16          9.4860    29.6390    31.3990 ca         1 YB3      -0.010000
      5 C19          8.8620    29.8660    29.2240 ca         1 YB3       0.176500
      6 C21          7.5290    30.8480    30.7810 ca         1 YB3       0.128900
      7 C22          8.5580    29.2400    37.6800 c6         1 YB3       0.151800
      8 C23          9.4880    29.6230    36.5280 c6         1 YB3       0.186300
      9 C26          7.0790    31.0150    37.1540 c6         1 YB3       0.151800
     10 C1           9.1000    29.5850    27.7980 cc         1 YB3      -0.153500
     11 C2          10.2390    28.8260    27.4010 cc         1 YB3      -0.127000
     12 C3          10.4380    28.5650    26.0900 cd         1 YB3       0.197000
     13 C5           9.5400    29.0240    25.1030 cd         1 YB3      -0.110000
     14 N6           8.4550    29.7550    25.5430 na         1 YB3       0.136100
     15 C7           8.2270    30.0390    26.8550 cd         1 YB3      -0.075000
     16 C8           7.7370    30.0850    24.4240 cd         1 YB3      -0.275100
     17 C9           8.4200    29.5360    23.3670 cc         1 YB3       0.070400
     18 C10          8.0430    29.5860    21.9270 c3         1 YB3      -0.019900
     19 N11          9.5340    28.8840    23.7960 nc         1 YB3      -0.267600
     20 C15          8.3700    30.3890    31.8230 ca         1 YB3      -0.094000
     21 C17         10.3610    29.1540    32.3910 ca         1 YB3      -0.049000
     22 N18          9.7150    29.3940    30.0930 nb         1 YB3      -0.148000
     23 N20          7.7610    30.5970    29.5250 nb         1 YB3      -0.183000
     24 N24          8.7350    30.3110    35.4960 nh         1 YB3      -0.829400
     25 C25          7.9840    31.4460    36.0060 c6         1 YB3       0.186300
     26 N27          7.7890    30.3410    38.2250 n3         1 YB3      -0.711600
     27 C28          8.5640    31.2350    39.0620 c3         1 YB3       0.150100
     28 F4          11.4890    27.8600    25.6700 f          1 YB3      -0.148000
     29 H12         10.8330    29.0350    34.4320 ha         1 YB3       0.117000
     30 H14          7.2260    31.1860    33.4320 ha         1 YB3       0.119000
     31 H21          6.6460    31.4350    31.0190 h4         1 YB3       0.023100
     32 H22B         9.1460    28.7770    38.4760 h1         1 YB3       0.062700
     33 H23B         9.9170    28.7010    36.1390 h1         1 YB3       0.047450
     34 H23A        10.3230    30.2420    36.8840 h1         1 YB3       0.047450
     35 H26A         6.5590    31.8870    37.5550 h1         1 YB3       0.062700
     36 H26B         6.3160    30.3350    36.7610 h1         1 YB3       0.062700
     37 H2          10.9330    28.4660    28.1480 ha         1 YB3       0.160000
     38 H7           7.3460    30.6190    27.0830 h4         1 YB3       0.168000
     39 H8           6.8300    30.6630    24.4770 h4         1 YB3       0.233000
     40 H10C         8.8860    29.2990    21.3010 hc         1 YB3       0.048700
     41 H10B         7.2200    28.9040    21.7080 hc         1 YB3       0.048700
     42 H10A         7.7230    30.5850    21.6320 hc         1 YB3       0.048700
     43 H17         11.2420    28.5990    32.0950 ha         1 YB3       0.135000
     44 H25A         8.6840    32.2220    36.3440 h1         1 YB3       0.047450
     45 H25B         7.3770    31.8980    35.2270 h1         1 YB3       0.047450
     46 H28C         9.0060    30.6700    39.8840 h1         1 YB3       0.032700
     47 H28B         9.3800    31.7680    38.5550 h1         1 YB3       0.032700
     48 H28A         7.9050    31.9880    39.4960 h1         1 YB3       0.032700
     49 H22A         7.8590    28.4820    37.3120 h1         1 YB3       0.062700
@<TRIPOS>BOND
     1     1     2 ar  
     2     1    21 ar  
     3     1    29 1   
     4     2     3 ar  
     5     2    24 1   
     6     3    20 ar  
     7     3    30 1   
     8     4    20 ar  
     9     4    21 ar  
    10     4    22 ar  
    11     5    10 1   
    12     5    22 ar  
    13     5    23 ar  
    14     6    20 ar  
    15     6    23 ar  
    16     6    31 1   
    17     7     8 1   
    18     7    26 1   
    19     7    32 1   
    20     7    49 1   
    21     8    24 1   
    22     8    33 1   
    23     8    34 1   
    24     9    25 1   
    25     9    26 1   
    26     9    35 1   
    27     9    36 1   
    28    10    11 1   
    29    10    15 2   
    30    11    12 2   
    31    11    37 1   
    32    12    13 1   
    33    12    28 1   
    34    13    14 1   
    35    13    19 2   
    36    14    15 1   
    37    14    16 1   
    38    15    38 1   
    39    16    17 2   
    40    16    39 1   
    41    17    18 1   
    42    17    19 1   
    43    18    40 1   
    44    18    41 1   
    45    18    42 1   
    46    21    43 1   
    47    24    25 1   
    48    25    44 1   
    49    25    45 1   
    50    26    27 1   
    51    27    46 1   
    52    27    47 1   
    53    27    48 1   
@<TRIPOS>SUBSTRUCTURE
     1 YB3         1 TEMP              0 ****  ****    0 ROOT
