@<TRIPOS>MOLECULE
YB4
   87    92     1     0     0
SMALL
No Charge or Current Charge


@<TRIPOS>ATOM
      1 C4          67.3300    64.8120    47.4150 ca         1 YB4      -0.144000
      2 C14         69.4360    70.8340    45.1330 ca         1 YB4       0.169900
      3 C5          67.6600    66.0890    46.9320 ca         1 YB4      -0.061000
      4 C6          67.6700    67.2080    47.7900 ca         1 YB4       0.266000
      5 C11         71.2440    70.6620    43.3370 c6         1 YB4      -0.010100
      6 C8          72.0020    67.1270    42.0310 cc         1 YB4      -0.221600
      7 C9          71.8180    66.0300    42.9300 cc         1 YB4      -0.167000
      8 C10         71.3190    66.4810    44.1240 cd         1 YB4      -0.144000
      9 C12         71.4970    69.6940    42.1590 c6         1 YB4      -0.019100
     10 C13         71.6270    68.2820    42.6850 cd         1 YB4      -0.069300
     11 N1          71.3180    67.8680    43.9780 na         1 YB4       0.002500
     12 N2          67.9230    68.4940    47.2850 nu         1 YB4      -0.914900
     13 C3          66.9810    64.6220    48.7620 ca         1 YB4       0.298000
     14 N3          69.5850    68.1490    45.6650 nb         1 YB4      -0.250000
     15 C1          67.3290    67.0200    49.1560 ca         1 YB4      -0.047000
     16 C2          66.9740    65.7380    49.6210 ca         1 YB4      -0.177000
     17 C15         70.3370    70.0360    44.4070 ca         1 YB4      -0.257300
     18 C16         70.3960    68.6460    44.7040 ca         1 YB4       0.259500
     19 C17         68.7520    68.9960    46.2920 ca         1 YB4       0.413900
     20 N4          68.6380    70.3140    46.0800 nb         1 YB4      -0.250000
     21 N5          67.3090    68.0820    50.1020 ns         1 YB4      -0.181000
     22 N6          66.6380    63.3310    49.2250 nh         1 YB4      -0.784400
     23 C18         67.5820    62.1840    49.0290 c6         1 YB4       0.195300
     24 C19         66.8620    60.7960    49.0740 c6         1 YB4       0.157300
     25 N7          66.0320    60.6130    50.3040 n3         1 YB4      -0.714600
     26 C20         65.0510    61.7360    50.4230 c6         1 YB4       0.157300
     27 C21         65.7340    63.1430    50.4060 c6         1 YB4       0.195300
     28 C22         65.3870    59.2840    50.3640 c3         1 YB4       0.152100
     29 N8          72.7520    65.7360    40.2230 ns         1 YB4      -0.170000
     30 O1          72.5770    67.9910    39.8610 o          1 YB4      -0.608100
     31 C23         73.1690    65.2500    38.9590 ca         1 YB4      -0.037000
     32 C24         74.4850    64.7430    38.8160 ca         1 YB4      -0.067800
     33 C25         74.9100    64.2590    37.5640 ca         1 YB4      -0.109000
     34 C26         74.0380    64.2620    36.4670 ca         1 YB4      -0.107000
     35 C27         72.7290    64.7410    36.6120 ca         1 YB4      -0.109000
     36 C28         72.2780    65.2360    37.8520 ca         1 YB4      -0.067800
     37 C29         75.4700    64.7210    39.9870 c3         1 YB4      -0.028600
     38 C30         70.8220    65.6990    37.9660 c3         1 YB4      -0.028600
     39 C31         69.9310    64.6830    38.7080 c3         1 YB4      -0.085100
     40 C32         76.1850    66.0730    40.1790 c3         1 YB4      -0.085100
     41 C33         68.2830    69.0180    50.4140 c          1 YB4       0.598100
     42 C34         67.8620    70.0540    51.4660 c3         1 YB4      -0.158400
     43 O2          69.4100    69.0070    49.9340 o          1 YB4      -0.572100
     44 C35         67.6310    71.4460    50.8370 c3         1 YB4      -0.086100
     45 H1          67.3150    63.9700    46.7290 ha         1 YB4       0.120000
     46 H2          69.3510    71.9050    44.9550 h4         1 YB4       0.024100
     47 H3          67.8760    66.2080    45.8750 ha         1 YB4       0.134000
     48 H4          72.2050    70.9240    43.8010 hc         1 YB4       0.057200
     49 H5          70.8180    71.6030    42.9600 hc         1 YB4       0.057200
     50 H6          71.9890    64.9850    42.6860 ha         1 YB4       0.133000
     51 H7          70.9970    65.9570    45.0180 h4         1 YB4       0.172000
     52 H8          72.3950    70.0050    41.6100 hc         1 YB4       0.079200
     53 H9          70.6580    69.7480    41.4520 hc         1 YB4       0.079200
     54 H10         67.5200    69.2410    47.8460 hn         1 YB4       0.508000
     55 H11         66.7170    65.6120    50.6690 ha         1 YB4       0.117000
     56 H12         66.4520    68.1590    50.6340 hn         1 YB4       0.154000
     57 H13         68.3510    62.2050    49.8160 h1         1 YB4       0.045200
     58 H14         68.1060    62.2680    48.0660 h1         1 YB4       0.045200
     59 H15         66.2310    60.7050    48.1780 h1         1 YB4       0.040450
     60 H16         67.6240    60.0060    49.0090 h1         1 YB4       0.040450
     61 H18         64.3290    61.6920    49.5950 h1         1 YB4       0.040450
     62 H19         64.4740    61.6400    51.3540 h1         1 YB4       0.040450
     63 H20         66.3080    63.2650    51.3360 h1         1 YB4       0.045200
     64 H21         64.9430    63.9070    50.4050 h1         1 YB4       0.045200
     65 H22         64.8250    59.1680    51.3010 h1         1 YB4       0.032367
     66 H23         64.6910    59.1460    49.5260 h1         1 YB4       0.032367
     67 H24         66.1400    58.4860    50.3210 h1         1 YB4       0.032367
     68 H25         72.6650    65.0350    40.9460 hn         1 YB4       0.157000
     69 H26         75.9220    63.8790    37.4400 ha         1 YB4       0.111500
     70 H27         74.3740    63.8830    35.5040 ha         1 YB4       0.112000
     71 H28         72.0590    64.7200    35.7560 ha         1 YB4       0.111500
     72 H29         74.9630    64.4460    40.9190 hc         1 YB4       0.046950
     73 H30         76.2290    63.9460    39.8260 hc         1 YB4       0.046950
     74 H31         70.7540    66.6700    38.4660 hc         1 YB4       0.046950
     75 H32         70.3980    65.8600    36.9670 hc         1 YB4       0.046950
     76 H33         68.8930    65.0360    38.7370 hc         1 YB4       0.034700
     77 H34         69.9500    63.7120    38.2000 hc         1 YB4       0.034700
     78 H35         70.2720    64.5400    39.7400 hc         1 YB4       0.034700
     79 H36         76.8930    66.0160    41.0140 hc         1 YB4       0.034700
     80 H37         76.7410    66.3460    39.2740 hc         1 YB4       0.034700
     81 H38         75.4640    66.8700    40.3950 hc         1 YB4       0.034700
     82 H39         66.9310    69.7390    51.9540 hc         1 YB4       0.060700
     83 H40         68.6600    70.1420    52.2130 hc         1 YB4       0.060700
     84 H41         67.3360    72.1700    51.6060 hc         1 YB4       0.044700
     85 H42         68.5460    71.8130    50.3550 hc         1 YB4       0.044700
     86 H43         66.8360    71.4050    50.0830 hc         1 YB4       0.044700
     87 C7          72.4580    67.0290    40.6140 c          1 YB4       0.648700
@<TRIPOS>BOND
     1     1     3 ar  
     2     1    13 ar  
     3     1    45 1   
     4     2    17 ar  
     5     2    20 ar  
     6     2    46 1   
     7     3     4 ar  
     8     3    47 1   
     9     4    12 1   
    10     4    15 ar  
    11     5     9 1   
    12     5    17 1   
    13     5    48 1   
    14     5    49 1   
    15     6     7 1   
    16     6    10 2   
    17     6    87 1   
    18     7     8 2   
    19     7    50 1   
    20     8    11 1   
    21     8    51 1   
    22     9    10 1   
    23     9    52 1   
    24     9    53 1   
    25    10    11 1   
    26    11    18 1   
    27    12    19 1   
    28    12    54 1   
    29    13    16 ar  
    30    13    22 1   
    31    14    18 ar  
    32    14    19 ar  
    33    15    16 ar  
    34    15    21 1   
    35    16    55 1   
    36    17    18 ar  
    37    19    20 ar  
    38    21    41 1   
    39    21    56 1   
    40    22    23 1   
    41    22    27 1   
    42    23    24 1   
    43    23    57 1   
    44    23    58 1   
    45    24    25 1   
    46    24    59 1   
    47    24    60 1   
    48    25    26 1   
    49    25    28 1   
    50    26    27 1   
    51    26    61 1   
    52    26    62 1   
    53    27    63 1   
    54    27    64 1   
    55    28    65 1   
    56    28    66 1   
    57    28    67 1   
    58    29    31 1   
    59    29    68 1   
    60    29    87 1   
    61    30    87 2   
    62    31    32 ar  
    63    31    36 ar  
    64    32    33 ar  
    65    32    37 1   
    66    33    34 ar  
    67    33    69 1   
    68    34    35 ar  
    69    34    70 1   
    70    35    36 ar  
    71    35    71 1   
    72    36    38 1   
    73    37    40 1   
    74    37    72 1   
    75    37    73 1   
    76    38    39 1   
    77    38    74 1   
    78    38    75 1   
    79    39    76 1   
    80    39    77 1   
    81    39    78 1   
    82    40    79 1   
    83    40    80 1   
    84    40    81 1   
    85    41    42 1   
    86    41    43 2   
    87    42    44 1   
    88    42    82 1   
    89    42    83 1   
    90    44    84 1   
    91    44    85 1   
    92    44    86 1   
@<TRIPOS>SUBSTRUCTURE
     1 YB4         1 TEMP              0 ****  ****    0 ROOT
