@<TRIPOS>MOLECULE
YB4
   87    92     1     0     0
SMALL
bcc


@<TRIPOS>ATOM
      1 C4          66.5080    65.0760    47.2440 ca         1 YB4      -0.162000
      2 C14         69.5060    70.7540    45.3860 ca         1 YB4       0.498200
      3 C5          66.8070    66.3450    46.7930 ca         1 YB4      -0.079000
      4 C6          67.1960    67.3530    47.6730 ca         1 YB4       0.127600
      5 C11         71.2220    70.2750    43.5390 c6         1 YB4      -0.010100
      6 C8          71.3370    66.8110    41.9960 cc         1 YB4      -0.221600
      7 C9          70.8710    65.7260    42.8090 cc         1 YB4      -0.185000
      8 C10         70.2360    66.2590    43.8830 cd         1 YB4      -0.111300
      9 C12         71.1180    69.4230    42.2760 c6         1 YB4      -0.019100
     10 C13         70.9730    67.9800    42.6230 cd         1 YB4      -0.018600
     11 N1          70.3100    67.6300    43.7730 na         1 YB4      -0.098900
     12 N2          67.4330    68.6670    47.2480 nu         1 YB4      -0.721300
     13 C3          66.5700    64.7520    48.6080 ca         1 YB4       0.159600
     14 N3          68.8810    68.1350    45.5230 nb         1 YB4      -0.776000
     15 C1          67.2790    67.0390    49.0290 ca         1 YB4       0.045600
     16 C2          66.9650    65.7630    49.4860 ca         1 YB4      -0.195000
     17 C15         70.1570    69.8940    44.5200 ca         1 YB4      -0.387900
     18 C16         69.7590    68.5650    44.6430 ca         1 YB4       0.587800
     19 C17         68.3470    69.0550    46.3210 ca         1 YB4       0.939900
     20 N4          68.6080    70.3630    46.2760 nb         1 YB4      -0.776000
     21 N5          67.6660    68.0230    49.9630 ns         1 YB4      -0.507100
     22 N6          66.2250    63.4740    49.0450 nh         1 YB4      -0.646000
     23 C18         66.8420    62.3510    48.3500 c6         1 YB4       0.195300
     24 C19         66.1200    61.0590    48.6740 c6         1 YB4       0.157300
     25 N7          66.1050    60.8290    50.1040 n3         1 YB4      -0.714600
     26 C20         65.4470    61.9350    50.7660 c6         1 YB4       0.157300
     27 C21         66.1560    63.2450    50.4740 c6         1 YB4       0.195300
     28 C22         65.4980    59.5630    50.4410 c3         1 YB4       0.152100
     29 N8          72.6040    65.5430    40.4180 ns         1 YB4      -0.496100
     30 O1          72.1060    67.6920    39.9400 o          1 YB4      -0.608100
     31 C23         73.3130    65.2970    39.2130 ca         1 YB4       0.055600
     32 C24         74.7110    65.2880    39.2330 ca         1 YB4      -0.067800
     33 C25         75.3910    65.0250    38.0470 ca         1 YB4      -0.127000
     34 C26         74.7000    64.7880    36.8700 ca         1 YB4      -0.125000
     35 C27         73.3140    64.7990    36.8690 ca         1 YB4      -0.127000
     36 C28         72.5990    65.0440    38.0370 ca         1 YB4      -0.067800
     37 C29         75.4940    65.5910    40.4830 c3         1 YB4      -0.028600
     38 C30         71.0960    64.9640    38.0210 c3         1 YB4      -0.028600
     39 C31         70.5850    63.6300    38.5620 c3         1 YB4      -0.085100
     40 C32         75.7580    67.0870    40.6510 c3         1 YB4      -0.085100
     41 C33         68.8970    68.5980    49.9740 c          1 YB4       0.665100
     42 C34         69.0810    69.6840    51.0080 c3         1 YB4      -0.158400
     43 O2          69.7630    68.3070    49.1690 o          1 YB4      -0.572100
     44 C35         68.9040    71.0570    50.3580 c3         1 YB4      -0.086100
     45 H1          66.1820    64.3380    46.5230 ha         1 YB4       0.138000
     46 H2          69.7280    71.8170    45.3580 h4         1 YB4       0.024100
     47 H3          66.7110    66.5640    45.7390 ha         1 YB4       0.152000
     48 H4          72.2070    70.1310    43.9940 hc         1 YB4       0.057200
     49 H5          71.1450    71.3330    43.2860 hc         1 YB4       0.057200
     50 H6          70.9730    64.6690    42.6140 ha         1 YB4       0.151000
     51 H7          69.7430    65.7920    44.7190 h4         1 YB4       0.190000
     52 H8          71.9910    69.5660    41.6430 hc         1 YB4       0.079200
     53 H9          70.2510    69.7400    41.6880 hc         1 YB4       0.079200
     54 H10         67.1730    69.3990    47.8920 hn         1 YB4       0.452800
     55 H11         67.0680    65.5750    50.5460 ha         1 YB4       0.135000
     56 H12         67.0460    68.1980    50.7400 hn         1 YB4       0.320500
     57 H13         67.9000    62.2570    48.6330 h1         1 YB4       0.045200
     58 H14         66.8060    62.5070    47.2740 h1         1 YB4       0.045200
     59 H15         65.0990    61.1000    48.2570 h1         1 YB4       0.040450
     60 H16         66.6390    60.2340    48.1810 h1         1 YB4       0.040450
     61 H18         64.3900    62.0220    50.4620 h1         1 YB4       0.040450
     62 H19         65.4590    61.7670    51.8460 h1         1 YB4       0.040450
     63 H20         67.1550    63.2300    50.9360 h1         1 YB4       0.045200
     64 H21         65.5880    64.0490    50.9450 h1         1 YB4       0.045200
     65 H22         65.5400    59.4050    51.5200 h1         1 YB4       0.032367
     66 H23         64.4440    59.4880    50.1310 h1         1 YB4       0.032367
     67 H24         66.0440    58.7480    49.9630 h1         1 YB4       0.032367
     68 H25         72.6330    64.8300    41.1310 hn         1 YB4       0.323500
     69 H26         76.4740    65.0090    38.0510 ha         1 YB4       0.129500
     70 H27         75.2410    64.5890    35.9540 ha         1 YB4       0.130000
     71 H28         72.7730    64.6050    35.9500 ha         1 YB4       0.129500
     72 H29         74.9790    65.2110    41.3660 hc         1 YB4       0.046950
     73 H30         76.4490    65.0640    40.4320 hc         1 YB4       0.046950
     74 H31         70.6510    65.7840    38.5860 hc         1 YB4       0.046950
     75 H32         70.7510    65.0860    36.9920 hc         1 YB4       0.046950
     76 H33         69.4960    63.5900    38.5270 hc         1 YB4       0.034700
     77 H34         70.9690    62.7960    37.9730 hc         1 YB4       0.034700
     78 H35         70.8900    63.4760    39.5980 hc         1 YB4       0.034700
     79 H36         76.3360    67.2770    41.5570 hc         1 YB4       0.034700
     80 H37         76.3230    67.4810    39.8060 hc         1 YB4       0.034700
     81 H38         74.8300    67.6520    40.7220 hc         1 YB4       0.034700
     82 H39         68.3760    69.5700    51.8340 hc         1 YB4       0.060700
     83 H40         70.0850    69.5960    51.4220 hc         1 YB4       0.060700
     84 H41         69.0580    71.8460    51.0930 hc         1 YB4       0.044700
     85 H42         69.6210    71.2070    49.5510 hc         1 YB4       0.044700
     86 H43         67.9010    71.1750    49.9470 hc         1 YB4       0.044700
     87 C7          72.0410    66.7410    40.7080 c          1 YB4       0.715700
@<TRIPOS>BOND
     1     1     3 ar  
     2     1    13 ar  
     3     1    45 1   
     4     2    17 ar  
     5     2    20 ar  
     6     2    46 1   
     7     3     4 ar  
     8     3    47 1   
     9     4    12 1   
    10     4    15 ar  
    11     5     9 1   
    12     5    17 1   
    13     5    48 1   
    14     5    49 1   
    15     6     7 1   
    16     6    10 2   
    17     6    87 1   
    18     7     8 2   
    19     7    50 1   
    20     8    11 1   
    21     8    51 1   
    22     9    10 1   
    23     9    52 1   
    24     9    53 1   
    25    10    11 1   
    26    11    18 1   
    27    12    19 1   
    28    12    54 1   
    29    13    16 ar  
    30    13    22 1   
    31    14    18 ar  
    32    14    19 ar  
    33    15    16 ar  
    34    15    21 1   
    35    16    55 1   
    36    17    18 ar  
    37    19    20 ar  
    38    21    41 1   
    39    21    56 1   
    40    22    23 1   
    41    22    27 1   
    42    23    24 1   
    43    23    57 1   
    44    23    58 1   
    45    24    25 1   
    46    24    59 1   
    47    24    60 1   
    48    25    26 1   
    49    25    28 1   
    50    26    27 1   
    51    26    61 1   
    52    26    62 1   
    53    27    63 1   
    54    27    64 1   
    55    28    65 1   
    56    28    66 1   
    57    28    67 1   
    58    29    31 1   
    59    29    68 1   
    60    29    87 1   
    61    30    87 2   
    62    31    32 ar  
    63    31    36 ar  
    64    32    33 ar  
    65    32    37 1   
    66    33    34 ar  
    67    33    69 1   
    68    34    35 ar  
    69    34    70 1   
    70    35    36 ar  
    71    35    71 1   
    72    36    38 1   
    73    37    40 1   
    74    37    72 1   
    75    37    73 1   
    76    38    39 1   
    77    38    74 1   
    78    38    75 1   
    79    39    76 1   
    80    39    77 1   
    81    39    78 1   
    82    40    79 1   
    83    40    80 1   
    84    40    81 1   
    85    41    42 1   
    86    41    43 2   
    87    42    44 1   
    88    42    82 1   
    89    42    83 1   
    90    44    84 1   
    91    44    85 1   
    92    44    86 1   
@<TRIPOS>SUBSTRUCTURE
     1 YB4         1 TEMP              0 ****  ****    0 ROOT
