@<TRIPOS>MOLECULE
YB5
   86    90     1     0     0
SMALL
No Charge or Current Charge


@<TRIPOS>ATOM
      1 C4         -34.7150    -1.1210    15.6550 c5         1 YB5       0.103300
      2 C5         -34.4750    -0.3350    14.3430 c5         1 YB5       0.127300
      3 C7         -33.2360    -1.4320    16.0760 c5         1 YB5       0.139300
      4 C8         -32.6330    -2.7430    15.4800 c3         1 YB5       0.047600
      5 C10        -32.6700    -4.0610    12.9210 c3         1 YB5       0.061600
      6 C17        -34.7860    -1.4270     8.0380 c6         1 YB5      -0.071700
      7 C20        -35.5900     1.2150     9.4140 c6         1 YB5      -0.072400
      8 C21        -35.5350     1.0370     7.8690 c6         1 YB5      -0.072400
      9 C22        -35.8400    -0.4250     7.4630 c6         1 YB5      -0.072900
     10 C11        -34.1330    -3.7640    12.5250 c3         1 YB5      -0.104400
     11 C12        -34.7150    -4.7640    11.5090 c3         1 YB5       0.233800
     12 C14        -34.6090    -4.9450     9.0940 c2         1 YB5       0.801100
     13 C16        -35.4220    -2.8440     8.1870 c3         1 YB5       0.207800
     14 C18        -34.1550    -0.9020     9.3720 c6         1 YB5      -0.072900
     15 C19        -35.1650    -0.0650    10.1900 c6         1 YB5      -0.072400
     16 C25        -33.2600     0.5520    14.7810 c5         1 YB5       0.319300
     17 C27        -32.2170     0.5590    12.4560 cc         1 YB5       0.408700
     18 C29        -31.1490     2.4330    12.5280 ca         1 YB5      -0.092600
     19 C30        -31.7390     2.2970    13.7620 ca         1 YB5       0.138500
     20 C32        -30.8550     4.3010    14.4120 ca         1 YB5       0.180900
     21 C34        -30.3640     3.5920    12.2830 ca         1 YB5       0.446900
     22 C36        -29.2930     2.9210    10.0460 c3         1 YB5       0.235800
     23 C37        -28.1890     1.9720    10.5650 c3         1 YB5      -0.095400
     24 C38        -27.7850     0.8810     9.5480 c3         1 YB5      -0.026100
     25 C39        -28.8970    -0.1310     9.2820 ca         1 YB5      -0.076300
     26 C40        -29.2540    -1.0670    10.2730 ca         1 YB5      -0.102000
     27 C41        -30.2680    -2.0090    10.0290 ca         1 YB5      -0.109500
     28 C42        -30.9300    -2.0250     8.7900 ca         1 YB5      -0.113000
     29 C43        -30.5850    -1.0900     7.8000 ca         1 YB5      -0.109500
     30 C44        -29.5710    -0.1460     8.0440 ca         1 YB5      -0.102000
     31 N13        -34.0400    -4.6060    10.2220 nu         1 YB5      -0.951400
     32 N15        -34.4110    -3.8980     8.3190 nu         1 YB5      -0.880400
     33 N23        -34.2250    -6.0290     8.6330 n2         1 YB5      -0.901100
     34 N26        -32.4170     1.1120    13.7240 na         1 YB5      -0.287300
     35 N28        -31.4500     1.3520    11.6920 nd         1 YB5      -0.552100
     36 N31        -31.6090     3.2240    14.7310 nb         1 YB5      -0.216000
     37 N33        -30.2270     4.5320    13.2350 nb         1 YB5      -0.310000
     38 N35        -29.6970     3.8790    11.0920 nu         1 YB5      -0.916100
     39 O24        -32.4570    -0.2780    15.6580 os         1 YB5      -0.440000
     40 O3         -35.4100    -0.2970    16.6110 oh         1 YB5      -0.686000
     41 O6         -35.6480     0.4070    13.9850 oh         1 YB5      -0.669000
     42 S9         -31.9100    -2.6040    13.7700 ss         1 YB5      -0.423000
     43 H1         -35.2820    -2.0440    15.4680 h1         1 YB5       0.045700
     44 H2         -34.1980    -1.0160    13.5320 h1         1 YB5       0.061700
     45 H3         -33.1710    -1.5190    17.1690 h1         1 YB5       0.065700
     46 H4         -33.4020    -3.5270    15.4930 h1         1 YB5       0.078700
     47 H5         -31.8280    -3.0780    16.1470 h1         1 YB5       0.078700
     48 H6         -32.6170    -4.9480    13.5670 h1         1 YB5       0.070200
     49 H7         -32.0800    -4.2660    12.0180 h1         1 YB5       0.070200
     50 H8         -33.9780    -1.5260     7.2990 hc         1 YB5       0.048700
     51 H9         -34.9410     2.0550     9.7000 hc         1 YB5       0.040700
     52 H10        -36.6060     1.4980     9.7220 hc         1 YB5       0.040700
     53 H11        -34.5390     1.3160     7.4980 hc         1 YB5       0.036200
     54 H12        -36.2460     1.7220     7.3890 hc         1 YB5       0.036200
     55 H13        -36.8460    -0.6840     7.8220 hc         1 YB5       0.046700
     56 H14        -35.8770    -0.5120     6.3680 hc         1 YB5       0.046700
     57 H15        -34.2020    -2.7570    12.0990 hc         1 YB5       0.058700
     58 H16        -34.7560    -3.7690    13.4270 hc         1 YB5       0.058700
     59 H17        -35.7880    -4.5550    11.3920 h1         1 YB5       0.041700
     60 H18        -34.6090    -5.7930    11.8810 h1         1 YB5       0.041700
     61 H19        -36.0870    -2.8370     9.0620 h1         1 YB5       0.037200
     62 H20        -36.0410    -3.0540     7.3040 h1         1 YB5       0.037200
     63 H21        -33.7690    -1.7300     9.9770 hc         1 YB5       0.046700
     64 H22        -33.2820    -0.2740     9.1410 hc         1 YB5       0.046700
     65 H23        -34.7370     0.2170    11.1600 hc         1 YB5       0.036200
     66 H24        -36.0500    -0.6770    10.4130 hc         1 YB5       0.036200
     67 H25        -33.6390     1.4070    15.3570 h2         1 YB5       0.121700
     68 H26        -32.6460    -0.3870    12.1500 h5         1 YB5       0.083800
     69 H27        -30.7420     5.0610    15.1840 h5         1 YB5       0.044100
     70 H28        -28.9020     3.4660     9.1750 h1         1 YB5       0.060200
     71 H29        -30.1570     2.3410     9.6960 h1         1 YB5       0.060200
     72 H30        -28.5190     1.4900    11.4920 hc         1 YB5       0.053700
     73 H31        -27.3030     2.5660    10.8180 hc         1 YB5       0.053700
     74 H32        -26.9040     0.3550     9.9340 hc         1 YB5       0.045200
     75 H33        -27.4640     1.3600     8.6150 hc         1 YB5       0.045200
     76 H34        -28.7450    -1.0650    11.2340 ha         1 YB5       0.108000
     77 H35        -30.5370    -2.7280    10.7990 ha         1 YB5       0.110500
     78 H36        -31.7110    -2.7570     8.5990 ha         1 YB5       0.110000
     79 H37        -31.1010    -1.0980     6.8430 ha         1 YB5       0.110500
     80 H38        -29.3090     0.5710     7.2690 ha         1 YB5       0.108000
     81 H39        -33.6610    -3.6860    10.0600 hn         1 YB5       0.464000
     82 H40        -34.0370    -4.2350     7.4410 hn         1 YB5       0.475000
     83 H41        -33.8630    -6.5210     9.4550 hn         1 YB5       0.375400
     84 H42        -29.2150     4.7770    11.1000 hn         1 YB5       0.501000
     85 H43        -35.5610    -0.8390    17.4220 ho         1 YB5       0.502000
     86 H44        -36.1160     0.5330    14.8480 ho         1 YB5       0.508000
@<TRIPOS>BOND
     1     1     2 1   
     2     1     3 1   
     3     1    40 1   
     4     1    43 1   
     5     2    16 1   
     6     2    41 1   
     7     2    44 1   
     8     3     4 1   
     9     3    39 1   
    10     3    45 1   
    11     4    42 1   
    12     4    46 1   
    13     4    47 1   
    14     5    10 1   
    15     5    42 1   
    16     5    48 1   
    17     5    49 1   
    18     6     9 1   
    19     6    13 1   
    20     6    14 1   
    21     6    50 1   
    22     7     8 1   
    23     7    15 1   
    24     7    51 1   
    25     7    52 1   
    26     8     9 1   
    27     8    53 1   
    28     8    54 1   
    29     9    55 1   
    30     9    56 1   
    31    10    11 1   
    32    10    57 1   
    33    10    58 1   
    34    11    31 1   
    35    11    59 1   
    36    11    60 1   
    37    12    31 1   
    38    12    32 1   
    39    12    33 2   
    40    13    32 1   
    41    13    61 1   
    42    13    62 1   
    43    14    15 1   
    44    14    63 1   
    45    14    64 1   
    46    15    65 1   
    47    15    66 1   
    48    16    34 1   
    49    16    39 1   
    50    16    67 1   
    51    17    34 1   
    52    17    35 2   
    53    17    68 1   
    54    18    19 ar  
    55    18    21 ar  
    56    18    35 1   
    57    19    34 1   
    58    19    36 ar  
    59    20    36 ar  
    60    20    37 ar  
    61    20    69 1   
    62    21    37 ar  
    63    21    38 1   
    64    22    23 1   
    65    22    38 1   
    66    22    70 1   
    67    22    71 1   
    68    23    24 1   
    69    23    72 1   
    70    23    73 1   
    71    24    25 1   
    72    24    74 1   
    73    24    75 1   
    74    25    26 ar  
    75    25    30 ar  
    76    26    27 ar  
    77    26    76 1   
    78    27    28 ar  
    79    27    77 1   
    80    28    29 ar  
    81    28    78 1   
    82    29    30 ar  
    83    29    79 1   
    84    30    80 1   
    85    31    81 1   
    86    32    82 1   
    87    33    83 1   
    88    38    84 1   
    89    40    85 1   
    90    41    86 1   
@<TRIPOS>SUBSTRUCTURE
     1 YB5         1 TEMP              0 ****  ****    0 ROOT
