@<TRIPOS>MOLECULE
YB5
   86    90     1     0     0
SMALL
abcg2


@<TRIPOS>ATOM
      1 C4         -34.5800    -1.3950    15.5020 c5         1 YB5       0.103300
      2 C5         -34.2510    -0.4200    14.3750 c5         1 YB5       0.127300
      3 C7         -33.1760    -1.8450    15.9450 c5         1 YB5       0.139300
      4 C8         -32.7210    -3.2210    15.4860 c3         1 YB5       0.047600
      5 C10        -33.7620    -4.3560    13.0370 c3         1 YB5       0.061600
      6 C17        -34.2790    -1.3650     8.5820 c6         1 YB5      -0.071700
      7 C20        -34.9370     1.4420     9.5580 c6         1 YB5      -0.072400
      8 C21        -34.9390     1.0200     8.0800 c6         1 YB5      -0.072400
      9 C22        -35.3290    -0.4460     7.9350 c6         1 YB5      -0.072900
     10 C11        -34.8300    -3.4930    12.3870 c3         1 YB5      -0.104400
     11 C12        -35.8580    -4.2800    11.5790 c3         1 YB5       0.233800
     12 C14        -34.2290    -4.9470     9.7530 c2         1 YB5       0.801100
     13 C16        -34.9360    -2.6890     8.9620 c3         1 YB5       0.207800
     14 C18        -33.6040    -0.6720     9.7790 c6         1 YB5      -0.072900
     15 C19        -34.5730     0.2700    10.4800 c6         1 YB5      -0.072400
     16 C25        -32.9600     0.2040    14.8930 c5         1 YB5       0.319300
     17 C27        -31.5990     0.1600    12.7780 cc         1 YB5       0.408700
     18 C29        -31.2520     2.2270    12.4640 ca         1 YB5      -0.092600
     19 C30        -31.9450     2.1310    13.6650 ca         1 YB5       0.138500
     20 C32        -31.9120     4.3000    13.9820 ca         1 YB5       0.180900
     21 C34        -30.9190     3.5320    12.0450 ca         1 YB5       0.446900
     22 C36        -29.8710     2.9340     9.8650 c3         1 YB5       0.235800
     23 C37        -28.4880     2.3460    10.1150 c3         1 YB5      -0.095400
     24 C38        -27.9960     1.4890     8.9470 c3         1 YB5      -0.026100
     25 C39        -28.8250     0.2560     8.7080 ca         1 YB5      -0.076300
     26 C40        -28.6910    -0.8590     9.5350 ca         1 YB5      -0.102000
     27 C41        -29.4530    -2.0000     9.3260 ca         1 YB5      -0.109500
     28 C42        -30.3670    -2.0460     8.2810 ca         1 YB5      -0.113000
     29 C43        -30.5160    -0.9410     7.4540 ca         1 YB5      -0.109500
     30 C44        -29.7510     0.1980     7.6690 ca         1 YB5      -0.102000
     31 N13        -35.3360    -5.1570    10.5400 nu         1 YB5      -0.951400
     32 N15        -33.9390    -3.6500     9.4010 nu         1 YB5      -0.880400
     33 N23        -33.4490    -5.8780     9.3280 n2         1 YB5      -0.901100
     34 N26        -32.1640     0.7960    13.8510 na         1 YB5      -0.287300
     35 N28        -31.0440     0.9760    11.9350 nd         1 YB5      -0.552100
     36 N31        -32.3060     3.1320    14.4620 nb         1 YB5      -0.216000
     37 N33        -31.2600     4.5480    12.8550 nb         1 YB5      -0.310000
     38 N35        -30.3060     3.8470    10.9000 nu         1 YB5      -0.916100
     39 O24        -32.2580    -0.8510    15.4860 os         1 YB5      -0.440000
     40 O3         -35.2500    -0.6830    16.5110 oh         1 YB5      -0.686000
     41 O6         -35.1830     0.5780    14.1060 oh         1 YB5      -0.669000
     42 S9         -32.3620    -3.4060    13.7140 ss         1 YB5      -0.423000
     43 H1         -35.1770    -2.2480    15.1580 h1         1 YB5       0.045700
     44 H2         -34.0070    -1.0080    13.4810 h1         1 YB5       0.061700
     45 H3         -33.1510    -1.8670    17.0430 h1         1 YB5       0.065700
     46 H4         -33.4590    -3.9680    15.7830 h1         1 YB5       0.078700
     47 H5         -31.7950    -3.4720    16.0040 h1         1 YB5       0.078700
     48 H6         -34.1760    -4.9850    13.8270 h1         1 YB5       0.070200
     49 H7         -33.3060    -5.0270    12.3080 h1         1 YB5       0.070200
     50 H8         -33.5080    -1.5770     7.8300 hc         1 YB5       0.048700
     51 H9         -34.2240     2.2580     9.7020 hc         1 YB5       0.040700
     52 H10        -35.9160     1.8390     9.8340 hc         1 YB5       0.040700
     53 H11        -33.9460     1.1680     7.6460 hc         1 YB5       0.036200
     54 H12        -35.6170     1.6560     7.5060 hc         1 YB5       0.036200
     55 H13        -36.3050    -0.6030     8.4080 hc         1 YB5       0.046700
     56 H14        -35.4570    -0.7140     6.8840 hc         1 YB5       0.046700
     57 H15        -34.3550    -2.7410    11.7580 hc         1 YB5       0.058700
     58 H16        -35.3840    -2.9470    13.1540 hc         1 YB5       0.058700
     59 H17        -36.5860    -3.5760    11.1700 h1         1 YB5       0.041700
     60 H18        -36.4200    -4.9280    12.2530 h1         1 YB5       0.041700
     61 H19        -35.6590    -2.4990     9.7580 h1         1 YB5       0.037200
     62 H20        -35.5070    -3.0660     8.1040 h1         1 YB5       0.037200
     63 H21        -33.2030    -1.4150    10.4720 hc         1 YB5       0.046700
     64 H22        -32.7380    -0.1000     9.4330 hc         1 YB5       0.046700
     65 H23        -34.1460     0.6410    11.4130 hc         1 YB5       0.036200
     66 H24        -35.4760    -0.2830    10.7640 hc         1 YB5       0.036200
     67 H25        -33.1790     1.0070    15.6060 h2         1 YB5       0.121700
     68 H26        -31.6310    -0.9160    12.6790 h5         1 YB5       0.083800
     69 H27        -32.1560     5.1710    14.5820 h5         1 YB5       0.044100
     70 H28        -29.8640     3.4990     8.9310 h1         1 YB5       0.060200
     71 H29        -30.6090     2.1420     9.7470 h1         1 YB5       0.060200
     72 H30        -28.5010     1.7520    11.0330 hc         1 YB5       0.053700
     73 H31        -27.7770     3.1610    10.2740 hc         1 YB5       0.053700
     74 H32        -26.9620     1.1960     9.1450 hc         1 YB5       0.045200
     75 H33        -27.9760     2.0970     8.0380 hc         1 YB5       0.045200
     76 H34        -27.9750    -0.8370    10.3490 ha         1 YB5       0.108000
     77 H35        -29.3280    -2.8570     9.9750 ha         1 YB5       0.110500
     78 H36        -30.9530    -2.9390     8.1080 ha         1 YB5       0.110000
     79 H37        -31.2290    -0.9650     6.6400 ha         1 YB5       0.110500
     80 H38        -29.8720     1.0550     7.0160 ha         1 YB5       0.108000
     81 H39        -35.4910    -6.1330    10.7290 hn         1 YB5       0.464000
     82 H40        -33.1140    -3.6390     8.8190 hn         1 YB5       0.475000
     83 H41        -33.6650    -6.7640     9.7730 hn         1 YB5       0.375400
     84 H42        -30.0990     4.8260    10.7800 hn         1 YB5       0.501000
     85 H43        -35.4240    -1.2850    17.2420 ho         1 YB5       0.502000
     86 H44        -35.8660     0.2190    13.5310 ho         1 YB5       0.508000
@<TRIPOS>BOND
     1     1     2 1   
     2     1     3 1   
     3     1    40 1   
     4     1    43 1   
     5     2    16 1   
     6     2    41 1   
     7     2    44 1   
     8     3     4 1   
     9     3    39 1   
    10     3    45 1   
    11     4    42 1   
    12     4    46 1   
    13     4    47 1   
    14     5    10 1   
    15     5    42 1   
    16     5    48 1   
    17     5    49 1   
    18     6     9 1   
    19     6    13 1   
    20     6    14 1   
    21     6    50 1   
    22     7     8 1   
    23     7    15 1   
    24     7    51 1   
    25     7    52 1   
    26     8     9 1   
    27     8    53 1   
    28     8    54 1   
    29     9    55 1   
    30     9    56 1   
    31    10    11 1   
    32    10    57 1   
    33    10    58 1   
    34    11    31 1   
    35    11    59 1   
    36    11    60 1   
    37    12    31 1   
    38    12    32 1   
    39    12    33 2   
    40    13    32 1   
    41    13    61 1   
    42    13    62 1   
    43    14    15 1   
    44    14    63 1   
    45    14    64 1   
    46    15    65 1   
    47    15    66 1   
    48    16    34 1   
    49    16    39 1   
    50    16    67 1   
    51    17    34 1   
    52    17    35 2   
    53    17    68 1   
    54    18    19 ar  
    55    18    21 ar  
    56    18    35 1   
    57    19    34 1   
    58    19    36 ar  
    59    20    36 ar  
    60    20    37 ar  
    61    20    69 1   
    62    21    37 ar  
    63    21    38 1   
    64    22    23 1   
    65    22    38 1   
    66    22    70 1   
    67    22    71 1   
    68    23    24 1   
    69    23    72 1   
    70    23    73 1   
    71    24    25 1   
    72    24    74 1   
    73    24    75 1   
    74    25    26 ar  
    75    25    30 ar  
    76    26    27 ar  
    77    26    76 1   
    78    27    28 ar  
    79    27    77 1   
    80    28    29 ar  
    81    28    78 1   
    82    29    30 ar  
    83    29    79 1   
    84    30    80 1   
    85    31    81 1   
    86    32    82 1   
    87    33    83 1   
    88    38    84 1   
    89    40    85 1   
    90    41    86 1   
@<TRIPOS>SUBSTRUCTURE
     1 YB5         1 TEMP              0 ****  ****    0 ROOT
