@<TRIPOS>MOLECULE
YB7
   47    49     1     0     0
SMALL
No Charge or Current Charge


@<TRIPOS>ATOM
      1 N1         206.4870   -26.5620    45.7710 ns         1 YB7      -0.488900
      2 C5         207.0260   -27.4340    43.5970 cc         1 YB7      -0.219600
      3 C6         206.2440   -27.5630    44.8610 c          1 YB7       0.638700
      4 C7         207.8390   -27.8650    41.5200 cd         1 YB7      -0.155000
      5 N3         207.9430   -25.2390    47.8820 n8         1 YB7      -1.021200
      6 N2         203.6850   -25.4690    46.3840 nc         1 YB7      -0.630000
      7 C1         209.4250   -25.9260    41.1860 ca         1 YB7       0.468500
      8 C12        205.8640   -26.4650    47.1060 c3         1 YB7       0.090400
      9 C13        204.3430   -26.4000    47.0700 cd         1 YB7       0.428700
     10 C14        202.3320   -25.6410    46.5510 cc         1 YB7       0.302900
     11 C15        201.9570   -26.6810    47.3640 cd         1 YB7      -0.238300
     12 C16        200.5620   -27.0930    47.7300 c3         1 YB7       0.246900
     13 C17        206.4550   -25.2650    47.8950 c3         1 YB7       0.133800
     14 C18        210.7760   -24.0370    41.1520 ca         1 YB7       0.407900
     15 C2         209.8710   -26.3050    39.9050 ca         1 YB7      -0.156000
     16 C3         210.8060   -25.5060    39.2330 ca         1 YB7      -0.016000
     17 C4         211.2670   -24.3380    39.8710 ca         1 YB7      -0.271300
     18 C10        212.2900   -23.4110    39.2260 c3         1 YB7       0.368300
     19 C8         206.9610   -28.3170    42.5320 cd         1 YB7      -0.082300
     20 C9         206.1190   -29.5640    42.4050 c3         1 YB7      -0.018800
     21 CAA        208.4470   -26.7170    41.9450 cc         1 YB7      -0.243500
     22 F1         212.4170   -23.6180    37.8950 f          1 YB7      -0.112000
     23 F2         211.9610   -22.1090    39.3860 f          1 YB7      -0.112000
     24 F3         213.5160   -23.5790    39.7690 f          1 YB7      -0.112000
     25 N7         207.9520   -26.4440    43.2160 na         1 YB7      -0.054000
     26 N9         209.8750   -24.8080    41.8000 nb         1 YB7      -0.707000
     27 O6         205.4550   -28.4650    45.1030 o          1 YB7      -0.588100
     28 OP3        199.9190   -27.6850    46.6020 oh         1 YB7      -0.652000
     29 S1         203.3580   -27.5360    47.9860 ss         1 YB7      -0.036400
     30 H1         207.1920   -25.8770    45.5440 hn         1 YB7       0.338500
     31 H2         207.9900   -28.3610    40.5670 ha         1 YB7       0.133000
     32 H3         208.2730   -24.4530    48.4580 hn         1 YB7       0.406500
     33 H4         208.3030   -26.0630    48.3810 hn         1 YB7       0.406500
     34 H6         206.1360   -27.3790    47.6490 h1         1 YB7       0.057700
     35 H7         201.6630   -24.9570    46.0450 h4         1 YB7       0.056100
     36 H8         200.0060   -26.2080    48.0680 h1         1 YB7       0.029700
     37 H9         200.6010   -27.8040    48.5660 h1         1 YB7       0.029700
     38 H10        206.0900   -24.3280    47.4510 h1         1 YB7       0.051200
     39 H11        206.1030   -25.3050    48.9360 h1         1 YB7       0.051200
     40 H12        211.1150   -23.1490    41.6850 h4         1 YB7       0.035100
     41 H13        209.5020   -27.2080    39.4320 ha         1 YB7       0.138000
     42 H14        211.1600   -25.7940    38.2450 ha         1 YB7       0.136000
     43 H15        206.3640   -30.2870    43.1910 hc         1 YB7       0.045367
     44 H16        205.0510   -29.3280    42.4780 hc         1 YB7       0.045367
     45 H17        206.2820   -30.0580    41.4400 hc         1 YB7       0.045367
     46 H18        208.2340   -25.6380    43.7670 hn         1 YB7       0.375000
     47 H19        199.0200   -27.9490    46.8990 ho         1 YB7       0.448000
@<TRIPOS>BOND
     1     1     3 1   
     2     1     8 1   
     3     1    30 1   
     4     2     3 1   
     5     2    19 2   
     6     2    25 1   
     7     3    27 2   
     8     4    19 1   
     9     4    21 2   
    10     4    31 1   
    11     5    13 1   
    12     5    32 1   
    13     5    33 1   
    14     6     9 2   
    15     6    10 1   
    16     7    15 ar  
    17     7    21 1   
    18     7    26 ar  
    19     8     9 1   
    20     8    13 1   
    21     8    34 1   
    22     9    29 1   
    23    10    11 2   
    24    10    35 1   
    25    11    12 1   
    26    11    29 1   
    27    12    28 1   
    28    12    36 1   
    29    12    37 1   
    30    13    38 1   
    31    13    39 1   
    32    14    17 ar  
    33    14    26 ar  
    34    14    40 1   
    35    15    16 ar  
    36    15    41 1   
    37    16    17 ar  
    38    16    42 1   
    39    17    18 1   
    40    18    22 1   
    41    18    23 1   
    42    18    24 1   
    43    19    20 1   
    44    20    43 1   
    45    20    44 1   
    46    20    45 1   
    47    21    25 1   
    48    25    46 1   
    49    28    47 1   
@<TRIPOS>SUBSTRUCTURE
     1 YB7         1 TEMP              0 ****  ****    0 ROOT
