@<TRIPOS>MOLECULE
YB7
   47    49     1     0     0
SMALL
bcc


@<TRIPOS>ATOM
      1 N1         206.6880   -26.8920    45.7860 ns         1 YB7      -0.555900
      2 C5         207.1580   -27.8280    43.6360 cc         1 YB7      -0.168900
      3 C6         206.3660   -27.8350    44.8740 c          1 YB7       0.705700
      4 C7         208.1960   -28.3510    41.7230 cd         1 YB7      -0.173000
      5 N3         208.0620   -25.8520    47.9380 n8         1 YB7      -0.910800
      6 N2         204.0970   -25.5930    45.9600 nc         1 YB7      -0.630000
      7 C1         209.2050   -26.0050    41.3060 ca         1 YB7       0.533800
      8 C12        205.9820   -26.7790    47.0370 c3         1 YB7       0.090400
      9 C13        204.5330   -26.4590    46.8090 cd         1 YB7       0.428700
     10 C14        202.7360   -25.4750    46.0210 cc         1 YB7       0.368200
     11 C15        202.1130   -26.2570    46.9410 cd         1 YB7      -0.158700
     12 C16        200.6560   -26.3550    47.2570 c3         1 YB7       0.223700
     13 C17        206.6290   -25.6510    47.8530 c3         1 YB7       0.133800
     14 C18        209.8500   -23.8100    41.2310 ca         1 YB7       0.473200
     15 C2         209.8960   -26.2900    40.1260 ca         1 YB7      -0.239300
     16 C3         210.5790   -25.2720    39.4960 ca         1 YB7      -0.034000
     17 C4         210.5580   -23.9960    40.0520 ca         1 YB7      -0.336600
     18 C10        211.3240   -22.8780    39.4270 c3         1 YB7       0.732200
     19 C8         207.3680   -28.8660    42.7360 cd         1 YB7      -0.082300
     20 C9         206.8470   -30.2640    42.8090 c3         1 YB7      -0.018800
     21 CAA        208.4560   -27.0230    42.0180 cc         1 YB7      -0.192800
     22 F1         211.3170   -22.9510    38.0910 f          1 YB7      -0.233300
     23 F2         210.8390   -21.6790    39.7630 f          1 YB7      -0.233300
     24 F3         212.6100   -22.8940    39.8060 f          1 YB7      -0.233300
     25 N7         207.8290   -26.7340    43.1820 na         1 YB7      -0.105100
     26 N9         209.1940   -24.7830    41.8400 nb         1 YB7      -0.707000
     27 O6         205.4560   -28.6350    45.0460 o          1 YB7      -0.588100
     28 OP3        199.9670   -25.4850    46.4010 oh         1 YB7      -0.589800
     29 S1         203.2970   -27.1980    47.7630 ss         1 YB7      -0.181300
     30 H1         207.6150   -26.4850    45.7990 hn         1 YB7       0.338500
     31 H2         208.5590   -28.8990    40.8670 ha         1 YB7       0.151000
     32 H3         208.5080   -25.0100    48.2760 hn         1 YB7       0.351300
     33 H4         208.2760   -26.5810    48.6070 hn         1 YB7       0.351300
     34 H6         206.0540   -27.7120    47.6100 h1         1 YB7       0.057700
     35 H7         202.2350   -24.7850    45.3580 h4         1 YB7       0.056100
     36 H8         200.4980   -26.1030    48.3140 h1         1 YB7       0.029700
     37 H9         200.3280   -27.3960    47.1360 h1         1 YB7       0.029700
     38 H10        206.4420   -24.7050    47.3400 h1         1 YB7       0.051200
     39 H11        206.1170   -25.5990    48.8210 h1         1 YB7       0.051200
     40 H12        209.8040   -22.8390    41.7100 h4         1 YB7       0.035100
     41 H13        209.8970   -27.2880    39.7110 ha         1 YB7       0.156000
     42 H14        211.1190   -25.4790    38.5810 ha         1 YB7       0.154000
     43 H15        206.9900   -30.7010    43.7970 hc         1 YB7       0.045367
     44 H16        205.7800   -30.3100    42.5910 hc         1 YB7       0.045367
     45 H17        207.3590   -30.8950    42.0860 hc         1 YB7       0.045367
     46 H18        207.8110   -25.8060    43.5790 hn         1 YB7       0.324700
     47 H19        199.0350   -25.5060    46.6370 ho         1 YB7       0.409000
@<TRIPOS>BOND
     1     1     3 1   
     2     1     8 1   
     3     1    30 1   
     4     2     3 1   
     5     2    19 2   
     6     2    25 1   
     7     3    27 2   
     8     4    19 1   
     9     4    21 2   
    10     4    31 1   
    11     5    13 1   
    12     5    32 1   
    13     5    33 1   
    14     6     9 2   
    15     6    10 1   
    16     7    15 ar  
    17     7    21 1   
    18     7    26 ar  
    19     8     9 1   
    20     8    13 1   
    21     8    34 1   
    22     9    29 1   
    23    10    11 2   
    24    10    35 1   
    25    11    12 1   
    26    11    29 1   
    27    12    28 1   
    28    12    36 1   
    29    12    37 1   
    30    13    38 1   
    31    13    39 1   
    32    14    17 ar  
    33    14    26 ar  
    34    14    40 1   
    35    15    16 ar  
    36    15    41 1   
    37    16    17 ar  
    38    16    42 1   
    39    17    18 1   
    40    18    22 1   
    41    18    23 1   
    42    18    24 1   
    43    19    20 1   
    44    20    43 1   
    45    20    44 1   
    46    20    45 1   
    47    21    25 1   
    48    25    46 1   
    49    28    47 1   
@<TRIPOS>SUBSTRUCTURE
     1 YB7         1 TEMP              0 ****  ****    0 ROOT
