@<TRIPOS>MOLECULE
YBA
   45    47     1     0     0
SMALL
No Charge or Current Charge


@<TRIPOS>ATOM
      1 C10        208.3290   -26.6810    41.7970 cc         1 YBA      -0.130000
      2 C13        207.6790   -27.8670    43.6510 cc         1 YBA      -0.229600
      3 C17        208.0380   -28.8490    48.0460 cc         1 YBA       0.422700
      4 C22        209.6110   -30.5630    48.7170 cc         1 YBA      -0.253000
      5 C24        205.8240   -27.5680    47.7430 c3         1 YBA       0.137800
      6 C28        208.6560   -25.6870    39.5110 ca         1 YBA      -0.125000
      7 C05        209.9060   -23.6060    39.2090 ca         1 YBA      -0.252300
      8 C06        210.1080   -23.5620    40.6030 ca         1 YBA       0.233000
      9 C08        209.5920   -24.5630    41.4390 ca         1 YBA      -0.176000
     10 C09        208.8620   -25.6420    40.9050 ca         1 YBA       0.057000
     11 C11        207.8860   -27.9090    41.3850 cd         1 YBA      -0.155000
     12 C12        207.4840   -28.6340    42.5260 cd         1 YBA      -0.105000
     13 C14        207.3580   -28.3400    45.0210 c          1 YBA       0.646700
     14 C16        207.3550   -27.6210    47.4520 c3         1 YBA       0.100400
     15 C19        208.3490   -30.7030    49.2480 cd         1 YBA       0.288300
     16 C29        209.1700   -24.6840    38.6710 ca         1 YBA      -0.027000
     17 F01        210.1970   -22.6890    37.0020 f          1 YBA      -0.109000
     18 F03        209.9820   -21.2870    38.6430 f          1 YBA      -0.109000
     19 F04        211.8230   -22.4250    38.4130 f          1 YBA      -0.109000
     20 N15        207.6390   -27.4250    46.0110 ns         1 YBA      -0.505900
     21 N18        207.4480   -29.7150    48.8680 nd         1 YBA      -0.622000
     22 N27        208.2150   -26.6520    43.1880 na         1 YBA      -0.084000
     23 O21        208.4760   -31.6950    51.5010 oh         1 YBA      -0.647000
     24 O26        206.8980   -29.4460    45.2640 o          1 YBA      -0.575100
     25 S23        209.7250   -29.1540    47.7050 ss         1 YBA      -0.013400
     26 H1         206.8170   -31.8280    50.2380 h1         1 YBA       0.031200
     27 H2         208.2180   -32.7780    49.7330 h1         1 YBA       0.031200
     28 H3         210.4760   -31.1950    48.8640 h4         1 YBA       0.161000
     29 H4         205.3340   -28.4280    47.2630 h1         1 YBA       0.065200
     30 H5         205.6600   -27.6530    48.8280 h1         1 YBA       0.065200
     31 H6         208.0840   -26.4940    39.0630 ha         1 YBA       0.133000
     32 H7         209.7760   -24.4950    42.5060 ha         1 YBA       0.129000
     33 H8         207.8550   -28.2820    40.3670 ha         1 YBA       0.139000
     34 H9         207.0850   -29.6450    42.5160 ha         1 YBA       0.154000
     35 H10        207.8000   -26.7620    47.9700 h1         1 YBA       0.058700
     36 H11        208.9860   -24.7560    37.6000 ha         1 YBA       0.138000
     37 H12        207.9850   -26.5240    45.7160 hn         1 YBA       0.312500
     38 H13        204.1810   -26.3230    47.5290 hn         1 YBA       0.395500
     39 H14        205.5530   -25.5120    47.7830 hn         1 YBA       0.395500
     40 H16        208.4760   -25.8610    43.7670 hn         1 YBA       0.347000
     41 H17        208.1300   -32.4450    52.0350 ho         1 YBA       0.442000
     42 F07        210.8070   -22.5480    41.1620 f          1 YBA      -0.160000
     43 C02        210.4760   -22.5020    38.3130 c3         1 YBA       0.371300
     44 N25        205.1740   -26.3130    47.2630 n8         1 YBA      -1.007200
     45 C20        207.9130   -31.8230    50.1800 c3         1 YBA       0.139300
@<TRIPOS>BOND
     1     1    10 1   
     2     1    11 2   
     3     1    22 1   
     4     2    12 2   
     5     2    13 1   
     6     2    22 1   
     7     3    14 1   
     8     3    21 2   
     9     3    25 1   
    10     4    15 2   
    11     4    25 1   
    12     4    28 1   
    13     5    14 1   
    14     5    29 1   
    15     5    30 1   
    16     5    44 1   
    17     6    10 ar  
    18     6    16 ar  
    19     6    31 1   
    20     7     8 ar  
    21     7    16 ar  
    22     7    43 1   
    23     8     9 ar  
    24     8    42 1   
    25     9    10 ar  
    26     9    32 1   
    27    11    12 1   
    28    11    33 1   
    29    12    34 1   
    30    13    20 1   
    31    13    24 2   
    32    14    20 1   
    33    14    35 1   
    34    15    21 1   
    35    15    45 1   
    36    16    36 1   
    37    17    43 1   
    38    18    43 1   
    39    19    43 1   
    40    20    37 1   
    41    22    40 1   
    42    23    41 1   
    43    23    45 1   
    44    26    45 1   
    45    27    45 1   
    46    38    44 1   
    47    39    44 1   
@<TRIPOS>SUBSTRUCTURE
     1 YBA         1 TEMP              0 ****  ****    0 ROOT
