@<TRIPOS>MOLECULE
YBA
   45    47     1     0     0
SMALL
abcg2


@<TRIPOS>ATOM
      1 C10        208.2970   -26.8260    41.7560 cc         1 YBA      -0.130000
      2 C13        207.6470   -27.9880    43.5490 cc         1 YBA      -0.229600
      3 C17        208.0640   -28.9600    47.8590 cc         1 YBA       0.422700
      4 C22        209.4490   -30.8670    48.3810 cc         1 YBA      -0.253000
      5 C24        206.0110   -27.5180    47.6300 c3         1 YBA       0.137800
      6 C28        208.6120   -25.6620    39.6010 ca         1 YBA      -0.125000
      7 C05        209.7880   -23.5620    39.4420 ca         1 YBA      -0.252300
      8 C06        209.9550   -23.6050    40.8190 ca         1 YBA       0.233000
      9 C08        209.4870   -24.6440    41.5910 ca         1 YBA      -0.176000
     10 C09        208.7990   -25.6980    40.9850 ca         1 YBA       0.057000
     11 C11        207.9530   -28.0980    41.3290 cd         1 YBA      -0.155000
     12 C12        207.5420   -28.8240    42.4560 cd         1 YBA      -0.105000
     13 C14        207.3410   -28.3390    44.9440 c          1 YBA       0.646700
     14 C16        207.5010   -27.6790    47.3070 c3         1 YBA       0.100400
     15 C19        208.3580   -30.7020    49.1720 cd         1 YBA       0.288300
     16 C29        209.1040   -24.6160    38.8440 ca         1 YBA      -0.027000
     17 F01        210.0940   -22.5660    37.3400 f          1 YBA      -0.109000
     18 F03        209.8380   -21.2450    39.0160 f          1 YBA      -0.109000
     19 F04        211.6750   -22.3320    38.7750 f          1 YBA      -0.109000
     20 N15        207.8350   -27.5330    45.9080 ns         1 YBA      -0.505900
     21 N18        207.5860   -29.6120    48.8630 nd         1 YBA      -0.622000
     22 N27        208.1140   -26.7850    43.1030 na         1 YBA      -0.084000
     23 O21        208.0490   -30.8570    51.5040 oh         1 YBA      -0.647000
     24 O26        206.6950   -29.3460    45.1950 o          1 YBA      -0.575100
     25 S23        209.5160   -29.6300    47.1970 ss         1 YBA      -0.013400
     26 H1         206.9440   -31.9560    50.1280 h1         1 YBA       0.031200
     27 H2         208.6210   -32.4710    50.3080 h1         1 YBA       0.031200
     28 H3         210.1920   -31.6480    48.4320 h4         1 YBA       0.161000
     29 H4         205.4520   -28.3550    47.2160 h1         1 YBA       0.065200
     30 H5         205.9110   -27.5810    48.7190 h1         1 YBA       0.065200
     31 H6         208.0680   -26.4540    39.1050 ha         1 YBA       0.133000
     32 H7         209.6910   -24.6240    42.6540 ha         1 YBA       0.129000
     33 H8         208.0220   -28.4680    40.3180 ha         1 YBA       0.139000
     34 H9         207.2290   -29.8550    42.4830 ha         1 YBA       0.154000
     35 H10        208.0310   -26.8620    47.8070 h1         1 YBA       0.058700
     36 H11        208.9410   -24.6260    37.7760 ha         1 YBA       0.138000
     37 H12        208.3940   -26.7340    45.6640 hn         1 YBA       0.312500
     38 H13        204.4950   -26.2660    47.1590 hn         1 YBA       0.395500
     39 H14        205.8460   -25.4940    47.5870 hn         1 YBA       0.395500
     40 H16        208.1600   -25.9410    43.6520 hn         1 YBA       0.347000
     41 H17        207.6720   -31.3950    52.2060 ho         1 YBA       0.442000
     42 F07        210.6060   -22.6080    41.4270 f          1 YBA      -0.160000
     43 C02        210.3450   -22.4270    38.6430 c3         1 YBA       0.371300
     44 N25        205.5010   -26.2860    47.0590 n8         1 YBA      -1.007200
     45 C20        207.9640   -31.5920    50.3030 c3         1 YBA       0.139300
@<TRIPOS>BOND
     1     1    10 1   
     2     1    11 2   
     3     1    22 1   
     4     2    12 2   
     5     2    13 1   
     6     2    22 1   
     7     3    14 1   
     8     3    21 2   
     9     3    25 1   
    10     4    15 2   
    11     4    25 1   
    12     4    28 1   
    13     5    14 1   
    14     5    29 1   
    15     5    30 1   
    16     5    44 1   
    17     6    10 ar  
    18     6    16 ar  
    19     6    31 1   
    20     7     8 ar  
    21     7    16 ar  
    22     7    43 1   
    23     8     9 ar  
    24     8    42 1   
    25     9    10 ar  
    26     9    32 1   
    27    11    12 1   
    28    11    33 1   
    29    12    34 1   
    30    13    20 1   
    31    13    24 2   
    32    14    20 1   
    33    14    35 1   
    34    15    21 1   
    35    15    45 1   
    36    16    36 1   
    37    17    43 1   
    38    18    43 1   
    39    19    43 1   
    40    20    37 1   
    41    22    40 1   
    42    23    41 1   
    43    23    45 1   
    44    26    45 1   
    45    27    45 1   
    46    38    44 1   
    47    39    44 1   
@<TRIPOS>SUBSTRUCTURE
     1 YBA         1 TEMP              0 ****  ****    0 ROOT
