@<TRIPOS>MOLECULE
YBC
   46    49     1     0     0
SMALL
abcg2


@<TRIPOS>ATOM
      1 C15         29.9300   -24.2670   -13.3610 cc         1 YBC       0.688700
      2 C14         31.7520   -23.4340   -14.2390 cd         1 YBC       0.297000
      3 C13         41.6870   -22.7350   -12.3190 ca         1 YBC      -0.037000
      4 C12         41.1130   -23.9880   -12.4790 ca         1 YBC      -0.106000
      5 C11         41.7190   -25.1030   -11.9090 ca         1 YBC      -0.060000
      6 C10         42.8830   -24.9620   -11.1720 ca         1 YBC      -0.109000
      7 C8          42.8580   -22.5950   -11.5890 ca         1 YBC       0.111000
      8 C9          43.4580   -23.7080   -11.0130 ca         1 YBC       0.137000
      9 C6          34.1040   -23.4970   -13.2610 cc         1 YBC      -0.157000
     10 C5          36.5880   -23.0210   -13.1730 c6         1 YBC       0.045300
     11 N1          33.8270   -22.5440   -15.2300 nd         1 YBC      -0.347000
     12 C2          38.1370   -22.0290   -11.5310 c6         1 YBC       0.134300
     13 C3          38.3430   -21.0980   -10.3550 c3         1 YBC       0.171600
     14 O3          39.7180   -21.0060   -10.0780 oh         1 YBC      -0.705000
     15 C4          37.0100   -24.4160   -12.7000 c6         1 YBC       0.145300
     16 O4          29.1860   -24.9080   -12.4770 oh         1 YBC      -0.613300
     17 CL1         44.9090   -23.5480   -10.1040 cl         1 YBC      -0.170000
     18 CL          43.5450   -21.0280   -11.3980 cl         1 YBC      -0.172000
     19 S           39.6430   -24.1510   -13.4500 ss         1 YBC      -0.236000
     20 C           38.4070   -24.3320   -12.0750 c6         1 YBC       0.323300
     21 O2          37.0590   -25.3400   -13.7470 oh         1 YBC      -0.693000
     22 C1          36.6980   -21.9990   -12.0420 c6         1 YBC       0.133300
     23 O1          35.7680   -22.3320   -11.0420 oh         1 YBC      -0.713000
     24 O           38.5000   -23.3370   -11.1200 os         1 YBC      -0.408000
     25 N           35.2630   -23.0270   -13.7570 na         1 YBC       0.116800
     26 N2          35.0740   -22.4570   -14.9390 nc         1 YBC      -0.199800
     27 C7          33.1800   -23.1790   -14.2270 cd         1 YBC       0.158000
     28 C16         30.8890   -23.0350   -15.2090 cc         1 YBC      -0.224000
     29 S1          29.2940   -23.5500   -14.8130 ss         1 YBC      -0.136400
     30 N3          31.1980   -24.1310   -13.1960 nd         1 YBC      -0.681000
     31 H11         41.2860   -26.0860   -12.0380 ha         1 YBC       0.131000
     32 H10         43.3530   -25.8280   -10.7270 ha         1 YBC       0.133000
     33 H6          34.0160   -24.0000   -12.3150 h4         1 YBC       0.190000
     34 H5          37.2510   -22.7040   -13.9820 h1         1 YBC       0.120700
     35 H2          38.7830   -21.7000   -12.3570 h1         1 YBC       0.074700
     36 H31         37.9160   -20.1230   -10.6250 h1         1 YBC       0.030200
     37 H32         37.7770   -21.4690    -9.4920 h1         1 YBC       0.030200
     38 HO3         39.8280   -20.4650    -9.2910 ho         1 YBC       0.511000
     39 H4          36.3380   -24.7530   -11.8990 h1         1 YBC       0.069700
     40 HO4         28.2530   -24.9450   -12.7250 ho         1 YBC       0.487000
     41 H           38.6370   -25.2700   -11.5660 h2         1 YBC       0.111700
     42 HO2         36.1730   -25.6650   -13.9330 ho         1 YBC       0.520000
     43 H1          36.5040   -21.0040   -12.4580 h1         1 YBC       0.061700
     44 HO1         35.3920   -21.5280   -10.6750 ho         1 YBC       0.516000
     45 H16         31.0940   -22.4790   -16.1090 h4         1 YBC       0.180000
     46 H13         41.2230   -21.8620   -12.7550 ha         1 YBC       0.141000
@<TRIPOS>BOND
     1     1    16 1   
     2     1    29 1   
     3     1    30 2   
     4     2    27 1   
     5     2    28 2   
     6     2    30 1   
     7     3     4 ar  
     8     3     7 ar  
     9     3    46 1   
    10     4     5 ar  
    11     4    19 1   
    12     5     6 ar  
    13     5    31 1   
    14     6     8 ar  
    15     6    32 1   
    16     7     8 ar  
    17     7    18 1   
    18     8    17 1   
    19     9    25 1   
    20     9    27 2   
    21     9    33 1   
    22    10    15 1   
    23    10    22 1   
    24    10    25 1   
    25    10    34 1   
    26    11    26 2   
    27    11    27 1   
    28    12    13 1   
    29    12    22 1   
    30    12    24 1   
    31    12    35 1   
    32    13    14 1   
    33    13    36 1   
    34    13    37 1   
    35    14    38 1   
    36    15    20 1   
    37    15    21 1   
    38    15    39 1   
    39    16    40 1   
    40    19    20 1   
    41    20    24 1   
    42    20    41 1   
    43    21    42 1   
    44    22    23 1   
    45    22    43 1   
    46    23    44 1   
    47    25    26 1   
    48    28    29 1   
    49    28    45 1   
@<TRIPOS>SUBSTRUCTURE
     1 YBC         1 TEMP              0 ****  ****    0 ROOT
