@<TRIPOS>MOLECULE
YBC
   46    49     1     0     0
SMALL
No Charge or Current Charge


@<TRIPOS>ATOM
      1 C15         29.9010   -24.4360   -13.3260 cc         1 YBC       0.688700
      2 C14         31.7060   -23.5030   -14.1750 cd         1 YBC       0.297000
      3 C13         42.2190   -22.8930   -12.8090 ca         1 YBC      -0.037000
      4 C12         41.2370   -23.8440   -12.4760 ca         1 YBC      -0.106000
      5 C11         41.4360   -24.6900   -11.3660 ca         1 YBC      -0.060000
      6 C10         42.6030   -24.5720   -10.5910 ca         1 YBC      -0.109000
      7 C8          43.3850   -22.7720   -12.0350 ca         1 YBC       0.111000
      8 C9          43.5770   -23.6140   -10.9200 ca         1 YBC       0.137000
      9 C6          34.0290   -23.4400   -13.3760 cc         1 YBC      -0.157000
     10 C5          36.5300   -22.9330   -13.2550 c6         1 YBC       0.045300
     11 N1          33.6690   -22.3580   -15.3180 nd         1 YBC      -0.347000
     12 C2          38.1060   -22.1010   -11.4600 c6         1 YBC       0.134300
     13 C3          38.3500   -21.2290   -10.1850 c3         1 YBC       0.171600
     14 O3          39.7180   -21.2610    -9.7330 oh         1 YBC      -0.705000
     15 C4          36.9730   -24.3950   -12.9200 c6         1 YBC       0.145300
     16 O4          29.1850   -25.1360   -12.4430 oh         1 YBC      -0.613300
     17 Cl1         45.0290   -23.4920    -9.9250 cl         1 YBC      -0.170000
     18 Cl          44.5890   -21.5610   -12.4810 cl         1 YBC      -0.172000
     19 S           39.7630   -23.9510   -13.4930 ss         1 YBC      -0.236000
     20 C           38.4080   -24.3850   -12.2850 c6         1 YBC       0.323300
     21 O2          36.9200   -25.2480   -14.0900 oh         1 YBC      -0.693000
     22 C1          36.6370   -22.0200   -11.9920 c6         1 YBC       0.133300
     23 O1          35.6880   -22.4430   -10.9860 oh         1 YBC      -0.713000
     24 O           38.4500   -23.4790   -11.1530 os         1 YBC      -0.408000
     25 N           35.1810   -22.8680   -13.8710 na         1 YBC       0.116800
     26 N2          34.9400   -22.2180   -15.0510 nc         1 YBC      -0.199800
     27 C7          33.0910   -23.1000   -14.3080 cd         1 YBC       0.158000
     28 C16         30.8030   -23.1280   -15.1460 cc         1 YBC      -0.224000
     29 S1          29.2120   -23.7280   -14.7660 ss         1 YBC      -0.136400
     30 N3          31.1900   -24.2560   -13.1260 nd         1 YBC      -0.681000
     31 H11         40.6990   -25.4420   -11.0980 ha         1 YBC       0.131000
     32 H10         42.7540   -25.2230    -9.7340 ha         1 YBC       0.133000
     33 H6          33.9650   -23.9960   -12.4510 h4         1 YBC       0.190000
     34 H5          37.2340   -22.5410   -14.0020 h1         1 YBC       0.120700
     35 H2          38.7860   -21.7210   -12.2360 h1         1 YBC       0.074700
     36 H31         38.0580   -20.1960   -10.4160 h1         1 YBC       0.030200
     37 H32         37.6870   -21.5870    -9.3860 h1         1 YBC       0.030200
     38 HO3         39.7530   -20.7620    -8.8840 ho         1 YBC       0.511000
     39 H4          36.2920   -24.7910   -12.1510 h1         1 YBC       0.069700
     40 HO4         28.2800   -25.1260   -12.8090 ho         1 YBC       0.487000
     41 H           38.6290   -25.4030   -11.9370 h2         1 YBC       0.111700
     42 HO2         35.9720   -25.3680   -14.3330 ho         1 YBC       0.520000
     43 H1          36.4290   -20.9830   -12.2990 h1         1 YBC       0.061700
     44 HO1         35.4540   -21.6540   -10.4420 ho         1 YBC       0.516000
     45 H16         30.9710   -22.5480   -16.0440 h4         1 YBC       0.180000
     46 H13         42.0750   -22.2410   -13.6670 ha         1 YBC       0.141000
@<TRIPOS>BOND
     1     1    16 1   
     2     1    29 1   
     3     1    30 2   
     4     2    27 1   
     5     2    28 2   
     6     2    30 1   
     7     3     4 ar  
     8     3     7 ar  
     9     3    46 1   
    10     4     5 ar  
    11     4    19 1   
    12     5     6 ar  
    13     5    31 1   
    14     6     8 ar  
    15     6    32 1   
    16     7     8 ar  
    17     7    18 1   
    18     8    17 1   
    19     9    25 1   
    20     9    27 2   
    21     9    33 1   
    22    10    15 1   
    23    10    22 1   
    24    10    25 1   
    25    10    34 1   
    26    11    26 2   
    27    11    27 1   
    28    12    13 1   
    29    12    22 1   
    30    12    24 1   
    31    12    35 1   
    32    13    14 1   
    33    13    36 1   
    34    13    37 1   
    35    14    38 1   
    36    15    20 1   
    37    15    21 1   
    38    15    39 1   
    39    16    40 1   
    40    19    20 1   
    41    20    24 1   
    42    20    41 1   
    43    21    42 1   
    44    22    23 1   
    45    22    43 1   
    46    23    44 1   
    47    25    26 1   
    48    28    29 1   
    49    28    45 1   
@<TRIPOS>SUBSTRUCTURE
     1 YBC         1 TEMP              0 ****  ****    0 ROOT
