@<TRIPOS>MOLECULE
YBD
   42    44     1     0     0
SMALL
No Charge or Current Charge


@<TRIPOS>ATOM
      1 C12        208.8890   -29.2050    46.7380 c3         1 YBD       0.132800
      2 C11        208.4710   -27.7190    46.5400 c3         1 YBD       0.098400
      3 C16        205.6360   -26.0490    48.1550 cc         1 YBD       0.286900
      4 C14        207.1570   -27.3650    47.2290 cd         1 YBD       0.412700
      5 C25        210.9150   -23.3580    38.4490 ca         1 YBD       0.064000
      6 C23        209.3650   -25.2200    38.6930 ca         1 YBD      -0.106000
      7 C24        210.0960   -24.3410    37.8730 ca         1 YBD      -0.072000
      8 C17        204.9990   -27.2520    48.3310 cd         1 YBD      -0.236300
      9 C18        203.6680   -27.4910    48.9780 c3         1 YBD       0.240900
     10 C02        211.0010   -23.2600    39.8490 ca         1 YBD       0.187000
     11 C03        210.2720   -24.1370    40.6690 ca         1 YBD      -0.158000
     12 C04        209.4410   -25.1270    40.1010 ca         1 YBD       0.026000
     13 C05        208.6870   -26.0380    40.9730 cc         1 YBD      -0.118000
     14 C06        207.6300   -26.8070    40.5670 cd         1 YBD      -0.162000
     15 C07        207.1510   -27.5170    41.6850 cd         1 YBD      -0.109000
     16 C08        207.8980   -27.1920    42.7940 cc         1 YBD      -0.233600
     17 N10        208.5050   -27.3110    45.1150 ns         1 YBD      -0.499900
     18 N13        210.2490   -29.4950    46.2110 n8         1 YBD      -1.003200
     19 N15        206.8610   -26.1040    47.5360 nc         1 YBD      -0.639000
     20 N22        208.8500   -26.2600    42.3410 na         1 YBD      -0.085000
     21 O19        202.6180   -27.1340    48.0780 oh         1 YBD      -0.652000
     22 O21        206.7630   -28.5770    44.3730 o          1 YBD      -0.581100
     23 S20        205.9570   -28.5750    47.6920 ss         1 YBD       0.007600
     24 Cl26       211.8250   -22.2640    37.4070 cl         1 YBD      -0.165000
     25 H1         208.8760   -29.4440    47.8110 h1         1 YBD       0.052200
     26 H2         208.1680   -29.8660    46.2360 h1         1 YBD       0.052200
     27 H3         209.2370   -27.1190    47.0480 h1         1 YBD       0.074700
     28 H4         205.2620   -25.0810    48.4610 h4         1 YBD       0.041100
     29 H5         208.7480   -25.9800    38.2210 ha         1 YBD       0.129000
     30 H6         210.0290   -24.4250    36.7910 ha         1 YBD       0.134000
     31 H7         203.5870   -28.5500    49.2610 h1         1 YBD       0.033200
     32 H8         203.6050   -26.8940    49.8980 h1         1 YBD       0.033200
     33 H9         210.3530   -24.0330    41.7460 ha         1 YBD       0.126000
     34 H10        207.2130   -26.8630    39.5670 ha         1 YBD       0.136000
     35 H11        206.3140   -28.2120    41.6740 ha         1 YBD       0.149000
     36 H12        209.2010   -26.6360    44.8330 hn         1 YBD       0.318500
     37 H13        210.4370   -30.5030    46.2910 hn         1 YBD       0.402000
     38 H14        210.2540   -29.3300    45.1970 hn         1 YBD       0.402000
     39 H16        209.5610   -25.8130    42.9110 hn         1 YBD       0.350000
     40 H17        201.7740   -27.3190    48.5440 ho         1 YBD       0.447000
     41 C09        207.6480   -27.7680    44.1380 c          1 YBD       0.645700
     42 F01        211.7850   -22.3180    40.4210 f          1 YBD      -0.161000
@<TRIPOS>BOND
     1     1     2 1   
     2     1    18 1   
     3     1    25 1   
     4     1    26 1   
     5     2     4 1   
     6     2    17 1   
     7     2    27 1   
     8     3     8 2   
     9     3    19 1   
    10     3    28 1   
    11     4    19 2   
    12     4    23 1   
    13     5     7 ar  
    14     5    10 ar  
    15     5    24 1   
    16     6     7 ar  
    17     6    12 ar  
    18     6    29 1   
    19     7    30 1   
    20     8     9 1   
    21     8    23 1   
    22     9    21 1   
    23     9    31 1   
    24     9    32 1   
    25    10    11 ar  
    26    10    42 1   
    27    11    12 ar  
    28    11    33 1   
    29    12    13 1   
    30    13    14 2   
    31    13    20 1   
    32    14    15 1   
    33    14    34 1   
    34    15    16 2   
    35    15    35 1   
    36    16    20 1   
    37    16    41 1   
    38    17    36 1   
    39    17    41 1   
    40    18    37 1   
    41    18    38 1   
    42    20    39 1   
    43    21    40 1   
    44    22    41 2   
@<TRIPOS>SUBSTRUCTURE
     1 YBD         1 TEMP              0 ****  ****    0 ROOT
