@<TRIPOS>MOLECULE
YBD
   42    44     1     0     0
SMALL
bcc


@<TRIPOS>ATOM
      1 C12        208.5170   -29.5480    46.6270 c3         1 YBD       0.132800
      2 C11        208.4250   -28.0600    46.2760 c3         1 YBD       0.098400
      3 C16        205.5420   -25.9330    46.9370 cc         1 YBD       0.352200
      4 C14        207.1640   -27.4010    46.7740 cd         1 YBD       0.412700
      5 C25        210.5380   -22.8140    39.1620 ca         1 YBD      -0.027600
      6 C23        209.1190   -24.7440    39.0200 ca         1 YBD      -0.124000
      7 C24        209.6910   -23.6320    38.4300 ca         1 YBD      -0.090000
      8 C17        205.1990   -26.6820    48.0160 cd         1 YBD      -0.156700
      9 C18        204.0880   -26.4820    48.9850 c3         1 YBD       0.217700
     10 C02        210.8110   -23.1430    40.4790 ca         1 YBD       0.151900
     11 C03        210.2630   -24.2600    41.0730 ca         1 YBD      -0.176000
     12 C04        209.3930   -25.0780    40.3500 ca         1 YBD       0.026000
     13 C05        208.7660   -26.2480    40.9480 cc         1 YBD      -0.067300
     14 C06        208.1160   -27.3100    40.3400 cd         1 YBD      -0.180000
     15 C07        207.6400   -28.1550    41.3560 cd         1 YBD      -0.127000
     16 C08        208.0210   -27.6040    42.5610 cc         1 YBD      -0.182900
     17 N10        208.6240   -27.7780    44.8730 ns         1 YBD      -0.566900
     18 N13        209.7780   -30.0840    46.1530 n8         1 YBD      -0.892800
     19 N15        206.6490   -26.3390    46.2510 nc         1 YBD      -0.639000
     20 N22        208.7130   -26.4590    42.2910 na         1 YBD      -0.136100
     21 O19        203.3880   -27.6950    49.1320 oh         1 YBD      -0.589800
     22 O21        206.7700   -28.8330    44.1170 o          1 YBD      -0.581100
     23 S20        206.3180   -27.9820    48.1670 ss         1 YBD      -0.137300
     24 CL26       211.2460   -21.4080    38.4670 cl         1 YBD      -0.073400
     25 H1         208.5070   -29.6320    47.7180 h1         1 YBD       0.052200
     26 H2         207.6310   -30.0770    46.2600 h1         1 YBD       0.052200
     27 H3         209.2620   -27.5730    46.7860 h1         1 YBD       0.074700
     28 H4         204.9980   -25.0580    46.6080 h4         1 YBD       0.041100
     29 H5         208.4410   -25.3500    38.4350 ha         1 YBD       0.147000
     30 H6         209.4670   -23.3890    37.4000 ha         1 YBD       0.152000
     31 H7         204.4980   -26.1400    49.9430 h1         1 YBD       0.033200
     32 H8         203.4520   -25.6720    48.6060 h1         1 YBD       0.033200
     33 H9         210.5400   -24.4770    42.0970 ha         1 YBD       0.144000
     34 H10        208.0120   -27.4660    39.2780 ha         1 YBD       0.154000
     35 H11        207.1020   -29.0800    41.2300 ha         1 YBD       0.167000
     36 H12        209.4640   -27.2830    44.6270 hn         1 YBD       0.318500
     37 H13        209.9080   -31.0140    46.5300 hn         1 YBD       0.346800
     38 H14        209.7440   -30.1980    45.1480 hn         1 YBD       0.346800
     39 H16        208.9800   -25.7790    42.9870 hn         1 YBD       0.299700
     40 H17        202.7990   -27.6100    49.8880 ho         1 YBD       0.408000
     41 C09        207.7440   -28.1230    43.9100 c          1 YBD       0.712700
     42 F01        211.6250   -22.3610    41.1890 f          1 YBD      -0.125900
@<TRIPOS>BOND
     1     1     2 1   
     2     1    18 1   
     3     1    25 1   
     4     1    26 1   
     5     2     4 1   
     6     2    17 1   
     7     2    27 1   
     8     3     8 2   
     9     3    19 1   
    10     3    28 1   
    11     4    19 2   
    12     4    23 1   
    13     5     7 ar  
    14     5    10 ar  
    15     5    24 1   
    16     6     7 ar  
    17     6    12 ar  
    18     6    29 1   
    19     7    30 1   
    20     8     9 1   
    21     8    23 1   
    22     9    21 1   
    23     9    31 1   
    24     9    32 1   
    25    10    11 ar  
    26    10    42 1   
    27    11    12 ar  
    28    11    33 1   
    29    12    13 1   
    30    13    14 2   
    31    13    20 1   
    32    14    15 1   
    33    14    34 1   
    34    15    16 2   
    35    15    35 1   
    36    16    20 1   
    37    16    41 1   
    38    17    36 1   
    39    17    41 1   
    40    18    37 1   
    41    18    38 1   
    42    20    39 1   
    43    21    40 1   
    44    22    41 2   
@<TRIPOS>SUBSTRUCTURE
     1 YBD         1 TEMP              0 ****  ****    0 ROOT
