@<TRIPOS>MOLECULE
YBE
   74    78     1     0     0
SMALL
No Charge or Current Charge


@<TRIPOS>ATOM
      1 C13          8.3300   -16.5710   -16.3150 c6         1 YBE      -0.073400
      2 C17          6.6370   -12.1340   -15.1940 c6         1 YBE       0.088300
      3 C20          7.0340   -10.6380   -12.8130 c6         1 YBE       0.126700
      4 C24          8.7120    -8.2720    -8.8040 c3         1 YBE       0.225000
      5 C26          8.6130    -9.4210    -7.7680 c3         1 YBE      -0.109100
      6 C02          6.4000   -11.6520   -22.9470 cc         1 YBE       0.200300
      7 C03          6.1440   -10.8910   -21.8340 cd         1 YBE      -0.176000
      8 C04          6.2360   -11.3080   -20.4110 ca         1 YBE      -0.024000
      9 C05          6.1140   -12.6710   -20.0390 ca         1 YBE      -0.040000
     10 C06          6.2070   -13.0280   -18.6870 ca         1 YBE       0.066400
     11 C08          6.2570   -14.1290   -16.8180 cc         1 YBE       0.380800
     12 C09          6.2190   -15.2350   -15.7620 c6         1 YBE       0.118400
     13 C11          5.9830   -17.6480   -16.5800 c          1 YBE       0.579000
     14 C12          7.4970   -17.8680   -16.4270 c6         1 YBE      -0.158400
     15 C14          7.6610   -15.6040   -15.3190 c6         1 YBE      -0.085400
     16 C18          8.0230   -11.4300   -15.0450 c6         1 YBE      -0.086900
     17 C19          8.0180   -10.3110   -13.9640 c6         1 YBE      -0.091900
     18 C25          8.1000    -6.9810    -8.2180 c3         1 YBE      -0.109100
     19 C27         10.1650    -8.0020    -9.2740 c3         1 YBE      -0.109100
     20 C29          5.5730   -10.6810   -13.3540 c6         1 YBE      -0.091900
     21 C30          5.4580   -11.1980   -14.8190 c6         1 YBE      -0.086900
     22 C31          6.4170   -12.0880   -17.7220 ca         1 YBE      -0.074200
     23 C32          6.5540   -10.7270   -18.0350 ca         1 YBE      -0.116000
     24 C33          6.4610   -10.3470   -19.3890 ca         1 YBE      -0.083000
     25 C34          5.6140    -9.6790   -22.3590 cd         1 YBE       0.290300
     26 C35          5.0350    -8.5100   -21.6060 c3         1 YBE      -0.133400
     27 N07          6.1020   -14.3050   -18.1490 nd         1 YBE      -0.560100
     28 N10          5.4630   -16.4230   -16.2280 ns         1 YBE      -0.493900
     29 N16          6.4560   -12.7670   -16.5300 na         1 YBE      -0.175600
     30 N21          7.1490    -9.6570   -11.7310 ns         1 YBE      -0.506900
     31 N36          5.5980    -9.6470   -23.6790 nc         1 YBE      -0.367300
     32 O15          5.2560   -18.5150   -17.0360 o          1 YBE      -0.561000
     33 O37          6.1210   -10.9190   -24.0740 os         1 YBE      -0.072700
     34 H1           9.3530   -16.8060   -15.9900 hc         1 YBE       0.056700
     35 H2           8.4150   -16.0950   -17.3020 hc         1 YBE       0.056700
     36 H3           6.6230   -12.9370   -14.4450 h1         1 YBE       0.062700
     37 H4           7.2920   -11.6290   -12.4070 h1         1 YBE       0.074700
     38 H5           9.0500    -9.1110    -6.8110 hc         1 YBE       0.049811
     39 H6           7.5660    -9.6940    -7.5880 hc         1 YBE       0.049811
     40 H7           9.1520   -10.3160    -8.0950 hc         1 YBE       0.049811
     41 H8           7.4850   -13.1020   -24.1100 hc         1 YBE       0.065033
     42 H9           7.7400   -13.2380   -22.3660 hc         1 YBE       0.065033
     43 H10          6.2120   -13.7920   -23.0920 hc         1 YBE       0.065033
     44 H11          5.9120   -13.4450   -20.7700 ha         1 YBE       0.133000
     45 H12          5.6840   -14.8530   -14.8820 h1         1 YBE       0.060700
     46 H13          7.6170   -18.4230   -15.4870 hc         1 YBE       0.071200
     47 H14          7.8550   -18.5410   -17.2180 hc         1 YBE       0.071200
     48 H15          7.6220   -16.0780   -14.3280 hc         1 YBE       0.055700
     49 H16          8.2730   -14.7000   -15.1980 hc         1 YBE       0.055700
     50 H17          8.7720   -12.1900   -14.7820 hc         1 YBE       0.058450
     51 H18          8.3650   -11.0030   -15.9950 hc         1 YBE       0.058450
     52 H19          9.0360   -10.1780   -13.5730 hc         1 YBE       0.053700
     53 H20          7.7370    -9.3530   -14.4230 hc         1 YBE       0.053700
     54 H21          8.6570    -6.6510    -7.3330 hc         1 YBE       0.049811
     55 H22          8.1220    -6.1690    -8.9550 hc         1 YBE       0.049811
     56 H23          7.0570    -7.1440    -7.9200 hc         1 YBE       0.049811
     57 H24         10.7510    -7.5560    -8.4620 hc         1 YBE       0.049811
     58 H25         10.6760    -8.9220    -9.5750 hc         1 YBE       0.049811
     59 H26         10.1760    -7.3060   -10.1220 hc         1 YBE       0.049811
     60 H27          5.1200    -9.6800   -13.3050 hc         1 YBE       0.053700
     61 H28          4.9710   -11.3150   -12.6880 hc         1 YBE       0.053700
     62 H29          5.4240   -10.3380   -15.4990 hc         1 YBE       0.058450
     63 H30          4.5020   -11.7240   -14.9490 hc         1 YBE       0.058450
     64 H31          6.7390    -9.9760   -17.2730 ha         1 YBE       0.118000
     65 H32          6.6050    -9.3010   -19.6360 ha         1 YBE       0.116000
     66 H33          4.3400    -7.9360   -22.2320 hc         1 YBE       0.056033
     67 H34          4.4750    -8.8440   -20.7260 hc         1 YBE       0.056033
     68 H35          5.8240    -7.8250   -21.2780 hc         1 YBE       0.056033
     69 H36          4.4670   -16.3190   -16.3800 hn         1 YBE       0.318500
     70 H37          6.4900    -8.8910   -11.6920 hn         1 YBE       0.322500
     71 C22          8.0960    -9.6610   -10.7500 c          1 YBE       0.651100
     72 C01          6.9900   -13.0220   -23.1350 c3         1 YBE      -0.140400
     73 O23          7.8790    -8.5750    -9.9480 os         1 YBE      -0.480100
     74 O28          8.9710   -10.5030   -10.6360 o          1 YBE      -0.551000
@<TRIPOS>BOND
     1     1    14 1   
     2     1    15 1   
     3     1    34 1   
     4     1    35 1   
     5     2    16 1   
     6     2    21 1   
     7     2    29 1   
     8     2    36 1   
     9     3    17 1   
    10     3    20 1   
    11     3    30 1   
    12     3    37 1   
    13     4     5 1   
    14     4    18 1   
    15     4    19 1   
    16     4    73 1   
    17     5    38 1   
    18     5    39 1   
    19     5    40 1   
    20     6     7 2   
    21     6    33 1   
    22     6    72 1   
    23     7     8 1   
    24     7    25 1   
    25     8     9 ar  
    26     8    24 ar  
    27     9    10 ar  
    28     9    44 1   
    29    10    22 ar  
    30    10    27 1   
    31    11    12 1   
    32    11    27 2   
    33    11    29 1   
    34    12    15 1   
    35    12    28 1   
    36    12    45 1   
    37    13    14 1   
    38    13    28 1   
    39    13    32 2   
    40    14    46 1   
    41    14    47 1   
    42    15    48 1   
    43    15    49 1   
    44    16    17 1   
    45    16    50 1   
    46    16    51 1   
    47    17    52 1   
    48    17    53 1   
    49    18    54 1   
    50    18    55 1   
    51    18    56 1   
    52    19    57 1   
    53    19    58 1   
    54    19    59 1   
    55    20    21 1   
    56    20    60 1   
    57    20    61 1   
    58    21    62 1   
    59    21    63 1   
    60    22    23 ar  
    61    22    29 1   
    62    23    24 ar  
    63    23    64 1   
    64    24    65 1   
    65    25    26 1   
    66    25    31 2   
    67    26    66 1   
    68    26    67 1   
    69    26    68 1   
    70    28    69 1   
    71    30    70 1   
    72    30    71 1   
    73    31    33 1   
    74    41    72 1   
    75    42    72 1   
    76    43    72 1   
    77    71    73 1   
    78    71    74 2   
@<TRIPOS>SUBSTRUCTURE
     1 YBE         1 TEMP              0 ****  ****    0 ROOT
