@<TRIPOS>MOLECULE
YBE
   74    78     1     0     0
SMALL
abcg2


@<TRIPOS>ATOM
      1 C13          8.2330   -16.2150   -16.2800 c6         1 YBE      -0.073400
      2 C17          6.5640   -11.9800   -15.1770 c6         1 YBE       0.088300
      3 C20          7.0020   -10.5230   -12.8740 c6         1 YBE       0.126700
      4 C24          8.8320    -8.5280    -8.8150 c3         1 YBE       0.225000
      5 C26          8.6750    -9.7050    -7.8580 c3         1 YBE      -0.109100
      6 C02          6.7370   -11.7510   -22.8710 cc         1 YBE       0.200300
      7 C03          6.1250   -11.1160   -21.8360 cd         1 YBE      -0.176000
      8 C04          6.1890   -11.4410   -20.4080 ca         1 YBE      -0.024000
      9 C05          6.0310   -12.7540   -19.9840 ca         1 YBE      -0.040000
     10 C06          6.1180   -13.0310   -18.6230 ca         1 YBE       0.066400
     11 C08          6.1620   -13.9520   -16.7070 cc         1 YBE       0.380800
     12 C09          6.1570   -14.9910   -15.6130 c6         1 YBE       0.118400
     13 C11          5.9340   -17.2950   -16.5680 c          1 YBE       0.579000
     14 C12          7.4300   -17.4910   -16.4830 c6         1 YBE      -0.158400
     15 C14          7.5820   -15.3670   -15.2020 c6         1 YBE      -0.085400
     16 C18          7.9510   -11.3230   -15.0580 c6         1 YBE      -0.086900
     17 C19          7.9490   -10.1920   -14.0250 c6         1 YBE      -0.091900
     18 C25          8.3110    -7.2580    -8.1520 c3         1 YBE      -0.109100
     19 C27         10.2820    -8.3320    -9.2390 c3         1 YBE      -0.109100
     20 C29          5.5500   -10.5640   -13.3760 c6         1 YBE      -0.091900
     21 C30          5.4520   -10.9890   -14.8470 c6         1 YBE      -0.086900
     22 C31          6.3490   -12.0020   -17.6980 ca         1 YBE      -0.074200
     23 C32          6.4990   -10.6790   -18.1060 ca         1 YBE      -0.116000
     24 C33          6.4200   -10.4230   -19.4620 ca         1 YBE      -0.083000
     25 C34          5.3830   -10.0790   -22.4780 cd         1 YBE       0.290300
     26 C35          4.5030    -9.0580   -21.8510 c3         1 YBE      -0.133400
     27 N07          6.0020   -14.2320   -17.9700 nd         1 YBE      -0.560100
     28 N10          5.4260   -16.1630   -16.0350 ns         1 YBE      -0.493900
     29 N16          6.3760   -12.6230   -16.4700 na         1 YBE      -0.175600
     30 N21          7.1010    -9.5990   -11.7660 ns         1 YBE      -0.506900
     31 N36          5.5460   -10.1200   -23.7670 nc         1 YBE      -0.367300
     32 O15          5.2040   -18.1580   -17.0340 o          1 YBE      -0.561000
     33 O37          6.3930   -11.1600   -24.0170 os         1 YBE      -0.072700
     34 H1           9.2570   -16.4650   -15.9990 hc         1 YBE       0.056700
     35 H2           8.2920   -15.6540   -17.2150 hc         1 YBE       0.056700
     36 H3           6.5040   -12.7790   -14.4370 h1         1 YBE       0.062700
     37 H4           7.2700   -11.5110   -12.4910 h1         1 YBE       0.074700
     38 H5           9.1990    -9.4810    -6.9280 hc         1 YBE       0.049811
     39 H6           7.6250    -9.8710    -7.6130 hc         1 YBE       0.049811
     40 H7           9.0890   -10.6280    -8.2590 hc         1 YBE       0.049811
     41 H8           8.4940   -12.6920   -23.6260 hc         1 YBE       0.065033
     42 H9           8.0870   -13.1000   -21.9550 hc         1 YBE       0.065033
     43 H10          7.1680   -13.8030   -23.2830 hc         1 YBE       0.065033
     44 H11          5.8300   -13.5480   -20.6920 ha         1 YBE       0.133000
     45 H12          5.6360   -14.5870   -14.7420 h1         1 YBE       0.060700
     46 H13          7.6000   -18.1700   -15.6410 hc         1 YBE       0.071200
     47 H14          7.7490   -18.0280   -17.3770 hc         1 YBE       0.071200
     48 H15          7.5380   -15.9210   -14.2610 hc         1 YBE       0.055700
     49 H16          8.1610   -14.4620   -15.0090 hc         1 YBE       0.055700
     50 H17          8.6780   -12.0890   -14.7820 hc         1 YBE       0.058450
     51 H18          8.2730   -10.9290   -16.0230 hc         1 YBE       0.058450
     52 H19          8.9620   -10.0360   -13.6500 hc         1 YBE       0.053700
     53 H20          7.6350    -9.2510   -14.4870 hc         1 YBE       0.053700
     54 H21          8.8990    -7.0360    -7.2620 hc         1 YBE       0.049811
     55 H22          8.3860    -6.4010    -8.8240 hc         1 YBE       0.049811
     56 H23          7.2690    -7.3680    -7.8470 hc         1 YBE       0.049811
     57 H24         10.8770    -8.0660    -8.3650 hc         1 YBE       0.049811
     58 H25         10.7120    -9.2290    -9.6770 hc         1 YBE       0.049811
     59 H26         10.3710    -7.5140    -9.9570 hc         1 YBE       0.049811
     60 H27          5.0970    -9.5750   -13.2730 hc         1 YBE       0.053700
     61 H28          4.9700   -11.2410   -12.7460 hc         1 YBE       0.053700
     62 H29          5.5250   -10.1110   -15.4920 hc         1 YBE       0.058450
     63 H30          4.4790   -11.4410   -15.0410 hc         1 YBE       0.058450
     64 H31          6.6820    -9.8700   -17.4130 ha         1 YBE       0.118000
     65 H32          6.5590    -9.4060   -19.8050 ha         1 YBE       0.116000
     66 H33          3.8910    -8.5590   -22.6000 hc         1 YBE       0.056033
     67 H34          3.8450    -9.5180   -21.1130 hc         1 YBE       0.056033
     68 H35          5.0890    -8.2990   -21.3340 hc         1 YBE       0.056033
     69 H36          4.4260   -16.0530   -16.1270 hn         1 YBE       0.318500
     70 H37          6.5260    -8.7710   -11.7810 hn         1 YBE       0.322500
     71 C22          8.0630    -9.6910   -10.8240 c          1 YBE       0.651100
     72 C01          7.6720   -12.8970   -22.9400 c3         1 YBE      -0.140400
     73 O23          7.9650    -8.6730    -9.9690 os         1 YBE      -0.480100
     74 O28          8.8840   -10.5860   -10.7710 o          1 YBE      -0.551000
@<TRIPOS>BOND
     1     1    14 1   
     2     1    15 1   
     3     1    34 1   
     4     1    35 1   
     5     2    16 1   
     6     2    21 1   
     7     2    29 1   
     8     2    36 1   
     9     3    17 1   
    10     3    20 1   
    11     3    30 1   
    12     3    37 1   
    13     4     5 1   
    14     4    18 1   
    15     4    19 1   
    16     4    73 1   
    17     5    38 1   
    18     5    39 1   
    19     5    40 1   
    20     6     7 2   
    21     6    33 1   
    22     6    72 1   
    23     7     8 1   
    24     7    25 1   
    25     8     9 ar  
    26     8    24 ar  
    27     9    10 ar  
    28     9    44 1   
    29    10    22 ar  
    30    10    27 1   
    31    11    12 1   
    32    11    27 2   
    33    11    29 1   
    34    12    15 1   
    35    12    28 1   
    36    12    45 1   
    37    13    14 1   
    38    13    28 1   
    39    13    32 2   
    40    14    46 1   
    41    14    47 1   
    42    15    48 1   
    43    15    49 1   
    44    16    17 1   
    45    16    50 1   
    46    16    51 1   
    47    17    52 1   
    48    17    53 1   
    49    18    54 1   
    50    18    55 1   
    51    18    56 1   
    52    19    57 1   
    53    19    58 1   
    54    19    59 1   
    55    20    21 1   
    56    20    60 1   
    57    20    61 1   
    58    21    62 1   
    59    21    63 1   
    60    22    23 ar  
    61    22    29 1   
    62    23    24 ar  
    63    23    64 1   
    64    24    65 1   
    65    25    26 1   
    66    25    31 2   
    67    26    66 1   
    68    26    67 1   
    69    26    68 1   
    70    28    69 1   
    71    30    70 1   
    72    30    71 1   
    73    31    33 1   
    74    41    72 1   
    75    42    72 1   
    76    43    72 1   
    77    71    73 1   
    78    71    74 2   
@<TRIPOS>SUBSTRUCTURE
     1 YBE         1 TEMP              0 ****  ****    0 ROOT
