@<TRIPOS>MOLECULE
YBH
   67    70     1     0     0
SMALL
No Charge or Current Charge


@<TRIPOS>ATOM
      1 O39         -9.7110     0.9430    -1.5510 o          1 YBH      -0.550100
      2 C31         -9.6660     1.4920    -0.4530 c          1 YBH       0.560900
      3 C17         -8.3940     1.5770     0.4310 c3         1 YBH       0.009700
      4 C12         -7.9110     3.0440     0.6050 c3         1 YBH      -0.226400
      5 C6          -6.7810     3.1470     1.6400 c          1 YBH       0.721000
      6 O38         -7.0940     3.2810     2.8130 o          1 YBH      -0.724500
      7 O36         -5.6270     3.0950     1.2450 o          1 YBH      -0.724500
      8 N4          -7.3260     0.7020    -0.1050 ns         1 YBH      -0.446900
      9 C18         -6.5550    -0.1670     0.6420 c          1 YBH       0.609100
     10 O35         -6.7400    -0.3270     1.8420 o          1 YBH      -0.632100
     11 C8          -5.4730    -0.9370    -0.1550 c3         1 YBH      -0.075400
     12 C28         -5.7270    -2.4300    -0.2300 cc         1 YBH      -0.208300
     13 S41         -5.6960    -3.4570     1.2070 ss         1 YBH       0.208000
     14 C9          -5.9960    -3.1760    -1.3510 cd         1 YBH      -0.129000
     15 C15         -6.1800    -4.5590    -1.0860 cd         1 YBH      -0.130000
     16 C7          -6.0540    -4.8840     0.2400 cc         1 YBH      -0.254000
     17 C11         -4.0550    -0.6000     0.3790 c3         1 YBH      -0.062400
     18 C25         -2.9070    -1.1870    -0.4770 c3         1 YBH      -0.076400
     19 C13         -1.5060    -0.8120     0.0530 c3         1 YBH      -0.093400
     20 C14         -0.3670    -1.4020    -0.7990 c3         1 YBH       0.096000
     21 N3           0.9470    -1.0330    -0.2710 ns         1 YBH      -0.497900
     22 C33          2.1460    -1.4360    -0.8180 c          1 YBH       0.611700
     23 O37          2.1750    -2.1500    -1.8130 o          1 YBH      -0.604100
     24 C16          3.4090    -0.9550    -0.1310 ca         1 YBH      -0.144600
     25 C20          4.6680    -1.3370    -0.6500 ca         1 YBH      -0.064500
     26 C21          5.8600    -0.9090    -0.0380 ca         1 YBH      -0.116500
     27 C22          5.8110    -0.0820     1.0980 ca         1 YBH       0.119100
     28 C23          4.5700     0.2910     1.6330 ca         1 YBH      -0.116500
     29 C24          3.3760    -0.1350     1.0250 ca         1 YBH      -0.064500
     30 O34          6.9610     0.3290     1.7330 os         1 YBH      -0.365400
     31 C26          8.0720     0.8020     1.0610 ca         1 YBH       0.541300
     32 C27          9.3560     0.6390     1.6530 ca         1 YBH       0.310900
     33 N1          10.5000     1.0960     1.0680 nb         1 YBH      -0.610000
     34 N2           7.9150     1.4500    -0.1260 nb         1 YBH      -0.710000
     35 C30          9.0480     1.9110    -0.7210 ca         1 YBH       0.269000
     36 C29         10.3450     1.7330    -0.1250 ca         1 YBH       0.188000
     37 C10         11.4790     2.2330    -0.7930 ca         1 YBH      -0.062000
     38 C32         11.3580     2.8980    -2.0250 ca         1 YBH      -0.116000
     39 C19         10.0940     3.0720    -2.6060 ca         1 YBH      -0.092000
     40 C5           8.9500     2.5800    -1.9550 ca         1 YBH      -0.085000
     41 H31        -10.5730     1.9720    -0.0220 h4         1 YBH      -0.030800
     42 H17         -8.7050     1.2010     1.4160 h1         1 YBH       0.115700
     43 H121        -8.7890     3.5950     0.9650 hc         1 YBH       0.030700
     44 H122        -7.5620     3.3720    -0.3810 hc         1 YBH       0.030700
     45 HN4         -7.1340     0.7370    -1.1000 hn         1 YBH       0.325500
     46 H8          -5.5130    -0.5550    -1.1830 hc         1 YBH       0.080700
     47 H9          -6.0600    -2.7520    -2.3490 ha         1 YBH       0.140000
     48 H15         -6.3990    -5.2900    -1.8590 ha         1 YBH       0.129000
     49 H7          -6.1420    -5.8490     0.7220 h4         1 YBH       0.142000
     50 H111        -3.9430     0.4910     0.4170 hc         1 YBH       0.057700
     51 H112        -3.9570    -0.9600     1.4110 hc         1 YBH       0.057700
     52 H251        -2.9940    -2.2800    -0.5060 hc         1 YBH       0.044200
     53 H252        -3.0090    -0.8300    -1.5100 hc         1 YBH       0.044200
     54 H131        -1.4090     0.2810     0.0770 hc         1 YBH       0.042700
     55 H132        -1.4040    -1.1680     1.0860 hc         1 YBH       0.042700
     56 H141        -0.4480    -2.4970    -0.8140 h1         1 YBH       0.055200
     57 H142        -0.4500    -1.0350    -1.8310 h1         1 YBH       0.055200
     58 HN3          0.9890    -0.4430     0.5490 hn         1 YBH       0.311500
     59 H20          4.7290    -1.9720    -1.5320 ha         1 YBH       0.130500
     60 H21          6.8160    -1.2230    -0.4490 ha         1 YBH       0.128500
     61 H23          4.5340     0.9160     2.5220 ha         1 YBH       0.128500
     62 H24          2.4350     0.1820     1.4690 ha         1 YBH       0.130500
     63 H27          9.4640     0.1310     2.6090 h4         1 YBH       0.044100
     64 H10         12.4630     2.1030    -0.3490 ha         1 YBH       0.131000
     65 H32         12.2460     3.2780    -2.5270 ha         1 YBH       0.118000
     66 H19          9.9990     3.5870    -3.5600 ha         1 YBH       0.118000
     67 H5           7.9730     2.7180    -2.4110 ha         1 YBH       0.137000
@<TRIPOS>BOND
     1     1     2 2   
     2     2     3 1   
     3     2    41 1   
     4     3     4 1   
     5     3     8 1   
     6     3    42 1   
     7     4     5 1   
     8     4    43 1   
     9     4    44 1   
    10     5     6 1   
    11     5     7 1   
    12     8     9 1   
    13     8    45 1   
    14     9    10 2   
    15     9    11 1   
    16    11    12 1   
    17    11    17 1   
    18    11    46 1   
    19    12    13 1   
    20    12    14 2   
    21    13    16 1   
    22    14    15 1   
    23    14    47 1   
    24    15    16 2   
    25    15    48 1   
    26    16    49 1   
    27    17    18 1   
    28    17    50 1   
    29    17    51 1   
    30    18    19 1   
    31    18    52 1   
    32    18    53 1   
    33    19    20 1   
    34    19    54 1   
    35    19    55 1   
    36    20    21 1   
    37    20    56 1   
    38    20    57 1   
    39    21    22 1   
    40    21    58 1   
    41    22    23 2   
    42    22    24 1   
    43    24    25 ar  
    44    24    29 ar  
    45    25    26 ar  
    46    25    59 1   
    47    26    27 ar  
    48    26    60 1   
    49    27    28 ar  
    50    27    30 1   
    51    28    29 ar  
    52    28    61 1   
    53    29    62 1   
    54    30    31 1   
    55    31    32 ar  
    56    31    34 ar  
    57    32    33 ar  
    58    32    63 1   
    59    33    36 ar  
    60    34    35 ar  
    61    35    36 ar  
    62    35    40 ar  
    63    36    37 ar  
    64    37    38 ar  
    65    37    64 1   
    66    38    39 ar  
    67    38    65 1   
    68    39    40 ar  
    69    39    66 1   
    70    40    67 1   
@<TRIPOS>SUBSTRUCTURE
     1 YBH         1 TEMP              0 ****  ****    0 ROOT
