@<TRIPOS>MOLECULE
YBH
   67    70     1     0     0
SMALL
bcc


@<TRIPOS>ATOM
      1 O39         -7.3140    -0.3430     3.0250 o          1 YBH      -0.550100
      2 C31         -8.0900     0.5240     2.7190 c          1 YBH       0.560900
      3 C17         -8.1830     1.1670     1.3590 c3         1 YBH       0.009700
      4 C12         -9.5660     0.9170     0.7690 c3         1 YBH      -0.226400
      5 C6          -9.8800     1.7990    -0.4620 c          1 YBH       0.931600
      6 O38         -9.3290     2.9140    -0.5100 o          1 YBH      -0.829800
      7 O36        -10.6920     1.3230    -1.2760 o          1 YBH      -0.829800
      8 N4          -7.1590     0.6960     0.4700 ns         1 YBH      -0.513900
      9 C18         -5.8740     1.0560     0.5920 c          1 YBH       0.676100
     10 O35         -5.4980     1.8910     1.4010 o          1 YBH      -0.632100
     11 C8          -4.9030     0.4110    -0.4050 c3         1 YBH      -0.075400
     12 C28         -5.3670    -0.9240    -0.8990 cc         1 YBH      -0.063400
     13 S41         -5.3080    -2.3250     0.1100 ss         1 YBH      -0.081800
     14 C9          -5.8780    -1.2380    -2.1230 cd         1 YBH      -0.147000
     15 C15         -6.2260    -2.6120    -2.2520 cd         1 YBH      -0.148000
     16 C7          -5.9700    -3.3200    -1.1200 cc         1 YBH      -0.127100
     17 C11         -3.4810     0.3610     0.1640 c3         1 YBH      -0.062400
     18 C25         -2.4570    -0.1180    -0.8550 c3         1 YBH      -0.076400
     19 C13         -1.0500    -0.1740    -0.2740 c3         1 YBH      -0.093400
     20 C14         -0.0380    -0.6680    -1.2960 c3         1 YBH       0.096000
     21 N3           1.2970    -0.6970    -0.7380 ns         1 YBH      -0.564900
     22 C33          2.2280    -1.6030    -1.0730 c          1 YBH       0.678700
     23 O37          2.0350    -2.4950    -1.8890 o          1 YBH      -0.604100
     24 C16          3.5490    -1.4680    -0.3840 ca         1 YBH      -0.144600
     25 C20          4.6810    -1.9650    -1.0260 ca         1 YBH      -0.082500
     26 C21          5.9280    -1.8800    -0.4320 ca         1 YBH      -0.134500
     27 C22          6.0380    -1.3110     0.8270 ca         1 YBH       0.119100
     28 C23          4.9260    -0.8270     1.4930 ca         1 YBH      -0.134500
     29 C24          3.6830    -0.9100     0.8850 ca         1 YBH      -0.082500
     30 O34          7.2550    -1.2820     1.4700 os         1 YBH      -0.365400
     31 C26          8.1750    -0.3850     1.0800 ca         1 YBH       0.541300
     32 C27          9.4420    -0.4820     1.7320 ca         1 YBH       0.310900
     33 N1          10.4030     0.3330     1.4410 nb         1 YBH      -0.610000
     34 N2           7.9110     0.5010     0.1840 nb         1 YBH      -0.710000
     35 C30          8.9080     1.3650    -0.1380 ca         1 YBH       0.334300
     36 C29         10.1680     1.2820     0.4950 ca         1 YBH       0.253300
     37 C10         11.1880     2.1870     0.1460 ca         1 YBH      -0.145300
     38 C32         10.9530     3.1450    -0.8070 ca         1 YBH      -0.134000
     39 C19          9.6970     3.2280    -1.4370 ca         1 YBH      -0.110000
     40 C5           8.6880     2.3570    -1.1130 ca         1 YBH      -0.168300
     41 H31         -8.8260     0.9190     3.4440 h4         1 YBH      -0.030800
     42 H17         -8.0820     2.2470     1.5080 h1         1 YBH       0.115700
     43 H121       -10.3200     1.1350     1.5340 hc         1 YBH       0.030700
     44 H122        -9.6870    -0.1420     0.5240 hc         1 YBH       0.030700
     45 HN4         -7.3930    -0.0480    -0.1690 hn         1 YBH       0.325500
     46 H8          -4.8980     1.0780    -1.2770 hc         1 YBH       0.080700
     47 H9          -6.0010    -0.5050    -2.9090 ha         1 YBH       0.158000
     48 H15         -6.6460    -3.0480    -3.1470 ha         1 YBH       0.147000
     49 H7          -6.1330    -4.3710    -0.9390 h4         1 YBH       0.160000
     50 H111        -3.2060     1.3550     0.5160 hc         1 YBH       0.057700
     51 H112        -3.4630    -0.2940     1.0420 hc         1 YBH       0.057700
     52 H251        -2.7330    -1.1090    -1.2270 hc         1 YBH       0.044200
     53 H252        -2.4700     0.5500    -1.7230 hc         1 YBH       0.044200
     54 H131        -0.7600     0.8190     0.0840 hc         1 YBH       0.042700
     55 H132        -1.0360    -0.8380     0.5960 hc         1 YBH       0.042700
     56 H141        -0.2980    -1.6750    -1.6210 h1         1 YBH       0.055200
     57 H142        -0.0620    -0.0280    -2.1840 h1         1 YBH       0.055200
     58 HN3          1.5740     0.1030    -0.1910 hn         1 YBH       0.311500
     59 H20          4.5910    -2.4180    -2.0040 ha         1 YBH       0.148500
     60 H21          6.8030    -2.2640    -0.9400 ha         1 YBH       0.146500
     61 H23          5.0250    -0.4020     2.4830 ha         1 YBH       0.146500
     62 H24          2.8190    -0.5530     1.4300 ha         1 YBH       0.148500
     63 H27          9.6120    -1.2470     2.4830 h4         1 YBH       0.044100
     64 H10         12.1470     2.1080     0.6410 ha         1 YBH       0.149000
     65 H32         11.7340     3.8420    -1.0790 ha         1 YBH       0.136000
     66 H19          9.5280     3.9910    -2.1860 ha         1 YBH       0.136000
     67 H5           7.7200     2.4130    -1.5930 ha         1 YBH       0.155000
@<TRIPOS>BOND
     1     1     2 2   
     2     2     3 1   
     3     2    41 1   
     4     3     4 1   
     5     3     8 1   
     6     3    42 1   
     7     4     5 1   
     8     4    43 1   
     9     4    44 1   
    10     5     6 1   
    11     5     7 1   
    12     8     9 1   
    13     8    45 1   
    14     9    10 2   
    15     9    11 1   
    16    11    12 1   
    17    11    17 1   
    18    11    46 1   
    19    12    13 1   
    20    12    14 2   
    21    13    16 1   
    22    14    15 1   
    23    14    47 1   
    24    15    16 2   
    25    15    48 1   
    26    16    49 1   
    27    17    18 1   
    28    17    50 1   
    29    17    51 1   
    30    18    19 1   
    31    18    52 1   
    32    18    53 1   
    33    19    20 1   
    34    19    54 1   
    35    19    55 1   
    36    20    21 1   
    37    20    56 1   
    38    20    57 1   
    39    21    22 1   
    40    21    58 1   
    41    22    23 2   
    42    22    24 1   
    43    24    25 ar  
    44    24    29 ar  
    45    25    26 ar  
    46    25    59 1   
    47    26    27 ar  
    48    26    60 1   
    49    27    28 ar  
    50    27    30 1   
    51    28    29 ar  
    52    28    61 1   
    53    29    62 1   
    54    30    31 1   
    55    31    32 ar  
    56    31    34 ar  
    57    32    33 ar  
    58    32    63 1   
    59    33    36 ar  
    60    34    35 ar  
    61    35    36 ar  
    62    35    40 ar  
    63    36    37 ar  
    64    37    38 ar  
    65    37    64 1   
    66    38    39 ar  
    67    38    65 1   
    68    39    40 ar  
    69    39    66 1   
    70    40    67 1   
@<TRIPOS>SUBSTRUCTURE
     1 YBH         1 TEMP              0 ****  ****    0 ROOT
