@<TRIPOS>MOLECULE
YBJ
   26    26     1     0     0
SMALL
abcg2


@<TRIPOS>ATOM
      1 C1          12.8140    16.2930     3.1630 c6         1 YBJ       0.386300
      2 C2          11.8060    15.2700     3.6700 c6         1 YBJ      -0.144400
      3 C3          10.5370    15.9270     4.2060 c6         1 YBJ       0.155500
      4 C4           9.9860    16.8930     3.1650 c6         1 YBJ       0.137300
      5 C5          11.0640    17.8940     2.7380 c6         1 YBJ       0.153300
      6 N            9.5360    14.9010     4.5120 n8         1 YBJ      -1.001200
      7 C           10.6170    18.8310     1.6370 c3         1 YBJ      -0.084100
      8 O           12.2170    17.1890     2.2450 os         1 YBJ      -0.467000
      9 O2           8.8750    17.5900     3.7320 os         1 YBJ      -0.473000
     10 H9          13.5990    15.8030     2.5860 h2         1 YBJ       0.097700
     11 H8          11.5370    14.6180     2.8360 hc         1 YBJ       0.068200
     12 H7          12.2710    14.6460     4.4370 hc         1 YBJ       0.068200
     13 H2          10.7810    16.5280     5.0950 h1         1 YBJ       0.024700
     14 H1           9.6600    16.3200     2.2890 h1         1 YBJ       0.065700
     15 H           11.3530    18.4780     3.6200 h1         1 YBJ       0.051700
     16 H10          9.8940    14.2790     5.2300 hn         1 YBJ       0.402500
     17 H11          8.7160    15.3500     4.9100 hn         1 YBJ       0.402500
     18 H4           9.7670    19.4290     1.9680 hc         1 YBJ       0.046700
     19 H6          11.4290    19.5090     1.3700 hc         1 YBJ       0.046700
     20 H5          10.3240    18.2680     0.7480 hc         1 YBJ       0.046700
     21 H13          6.9250    18.0990     3.5170 h1         1 YBJ       0.033700
     22 H12          7.8180    18.0210     1.9820 h1         1 YBJ       0.033700
     23 H14          7.3440    16.5190     2.8120 h1         1 YBJ       0.033700
     24 O1          13.4590    17.0040     4.2090 oh         1 YBJ      -0.677000
     25 H3          12.9850    16.8780     5.0390 ho         1 YBJ       0.444000
     26 C6           7.6830    17.5490     2.9590 c3         1 YBJ       0.148900
@<TRIPOS>BOND
     1     1     2 1   
     2     1     8 1   
     3     1    10 1   
     4     1    24 1   
     5     2     3 1   
     6     2    11 1   
     7     2    12 1   
     8     3     4 1   
     9     3     6 1   
    10     3    13 1   
    11     4     5 1   
    12     4     9 1   
    13     4    14 1   
    14     5     7 1   
    15     5     8 1   
    16     5    15 1   
    17     6    16 1   
    18     6    17 1   
    19     7    18 1   
    20     7    19 1   
    21     7    20 1   
    22     9    26 1   
    23    21    26 1   
    24    22    26 1   
    25    23    26 1   
    26    24    25 1   
@<TRIPOS>SUBSTRUCTURE
     1 YBJ         1 TEMP              0 ****  ****    0 ROOT
