@<TRIPOS>MOLECULE
YBJ
   26    26     1     0     0
SMALL
No Charge or Current Charge


@<TRIPOS>ATOM
      1 C1          12.8340    16.3240     3.2220 c6         1 YBJ       0.386300
      2 C2          11.8500    15.2370     3.7160 c6         1 YBJ      -0.144400
      3 C3          10.5350    15.8590     4.2420 c6         1 YBJ       0.155500
      4 C4           9.9040    16.8180     3.1830 c6         1 YBJ       0.137300
      5 C5          10.9850    17.8680     2.7570 c6         1 YBJ       0.153300
      6 N            9.5940    14.7900     4.6510 n8         1 YBJ      -1.001200
      7 C           10.5500    18.8220     1.6160 c3         1 YBJ      -0.084100
      8 O           12.1750    17.1900     2.2760 os         1 YBJ      -0.467000
      9 O2           8.6990    17.4260     3.7290 os         1 YBJ      -0.473000
     10 H9          13.6890    15.8350     2.7250 h2         1 YBJ       0.097700
     11 H8          11.6330    14.5540     2.8840 hc         1 YBJ       0.068200
     12 H7          12.3260    14.6300     4.4980 hc         1 YBJ       0.068200
     13 H2          10.7530    16.4500     5.1450 h1         1 YBJ       0.024700
     14 H1           9.6300    16.2180     2.3020 h1         1 YBJ       0.065700
     15 H           11.2530    18.4870     3.6260 h1         1 YBJ       0.051700
     16 H10          9.8660    14.4470     5.5800 hn         1 YBJ       0.402500
     17 H11          8.6840    15.2380     4.8210 hn         1 YBJ       0.402500
     18 H4           9.8090    19.5470     1.9690 hc         1 YBJ       0.046700
     19 H6          11.4040    19.3980     1.2400 hc         1 YBJ       0.046700
     20 H5          10.1190    18.2690     0.7730 hc         1 YBJ       0.046700
     21 H13          6.7690    18.1410     3.3560 h1         1 YBJ       0.033700
     22 H12          7.9140    18.4050     2.0310 h1         1 YBJ       0.033700
     23 H14          7.2710    16.7780     2.3360 h1         1 YBJ       0.033700
     24 O1          13.3020    17.1270     4.3050 oh         1 YBJ      -0.677000
     25 H3          13.8290    16.5270     4.8740 ho         1 YBJ       0.444000
     26 C6           7.6170    17.7020     2.8160 c3         1 YBJ       0.148900
@<TRIPOS>BOND
     1     1     2 1   
     2     1     8 1   
     3     1    10 1   
     4     1    24 1   
     5     2     3 1   
     6     2    11 1   
     7     2    12 1   
     8     3     4 1   
     9     3     6 1   
    10     3    13 1   
    11     4     5 1   
    12     4     9 1   
    13     4    14 1   
    14     5     7 1   
    15     5     8 1   
    16     5    15 1   
    17     6    16 1   
    18     6    17 1   
    19     7    18 1   
    20     7    19 1   
    21     7    20 1   
    22     9    26 1   
    23    21    26 1   
    24    22    26 1   
    25    23    26 1   
    26    24    25 1   
@<TRIPOS>SUBSTRUCTURE
     1 YBJ         1 TEMP              0 ****  ****    0 ROOT
