@<TRIPOS>MOLECULE
YBK
   66    69     1     0     0
SMALL
abcg2


@<TRIPOS>ATOM
      1 C10        134.6100   131.7960   101.2200 c3         1 YBK      -0.145400
      2 N12        133.8300   128.2650   100.9420 nb         1 YBK      -0.257000
      3 C13        134.0630   127.9770    99.6520 ca         1 YBK       0.181000
      4 C17        135.9950   127.3580    93.4950 c3         1 YBK       0.083000
      5 C20        137.5670   126.6220    91.7010 ca         1 YBK       0.315300
      6 C21        138.9030   126.6550    91.3290 ca         1 YBK      -0.085000
      7 C22        139.2460   126.9010    90.0060 ca         1 YBK      -0.128300
      8 C28        135.6210   126.7530    87.3770 ca         1 YBK      -0.048000
      9 C01        133.1720   124.4330    99.7420 c3         1 YBK       0.139900
     10 C03        133.8350   126.6350    99.1980 ca         1 YBK       0.197100
     11 C04        134.0560   126.3330    97.8790 ca         1 YBK      -0.203000
     12 C05        134.5340   127.3180    96.9800 ca         1 YBK      -0.071600
     13 C06        134.7570   128.6040    97.3850 ca         1 YBK      -0.134000
     14 C07        134.5160   128.9490    98.7350 ca         1 YBK      -0.017000
     15 C08        134.6980   130.2330    99.2520 ca         1 YBK      -0.121000
     16 C09        134.4360   130.4540   100.5850 ca         1 YBK       0.295300
     17 N11        134.0110   129.4590   101.3910 nb         1 YBK      -0.314000
     18 O15        133.9640   126.0950    95.0330 o          1 YBK      -0.562100
     19 N16        135.7500   127.4830    94.9090 ns         1 YBK      -0.521900
     20 C18        137.1530   126.3920    93.1470 c3         1 YBK       0.072700
     21 O19        138.2730   126.6240    93.9450 oh         1 YBK      -0.647000
     22 C23        138.1820   127.0840    89.1310 ca         1 YBK       0.166000
     23 C25        136.8600   127.0240    89.5590 cp         1 YBK       0.373500
     24 N26        136.5840   126.7980    90.8390 nb         1 YBK      -0.647000
     25 C27        135.7080   127.2740    88.6670 cp         1 YBK      -0.164500
     26 C29        134.5060   126.9930    86.5860 ca         1 YBK      -0.159500
     27 C30        133.4840   127.7690    87.0970 ca         1 YBK       0.187000
     28 C32        133.5340   128.2990    88.3720 ca         1 YBK      -0.159500
     29 C33        134.6480   128.0410    89.1520 ca         1 YBK      -0.048000
     30 C34        140.7010   126.9930    89.5400 c3         1 YBK       0.240300
     31 C35        141.6760   126.5030    90.6090 c3         1 YBK      -0.105600
     32 C36        141.0260   128.4470    89.2030 c3         1 YBK      -0.105600
     33 O37        140.8730   126.2380    88.3580 oh         1 YBK      -0.644000
     34 C38        136.7550   124.9110    93.2990 c3         1 YBK       0.279000
     35 F24        138.4110   127.3760    87.8480 f          1 YBK      -0.149000
     36 F31        132.4070   128.0120    86.3370 f          1 YBK      -0.175000
     37 F39        136.5470   124.5830    94.5800 f          1 YBK      -0.105667
     38 F40        137.7240   124.1060    92.8490 f          1 YBK      -0.105667
     39 F41        135.6470   124.6050    92.6210 f          1 YBK      -0.105667
     40 H1         134.2860   131.7740   102.2580 hc         1 YBK       0.056700
     41 H2         135.6560   132.1070   101.1940 hc         1 YBK       0.056700
     42 H3         134.0340   132.5570   100.6930 hc         1 YBK       0.056700
     43 H4         136.2800   128.3430    93.1220 h1         1 YBK       0.087700
     44 H5         135.0790   127.0780    92.9830 h1         1 YBK       0.087700
     45 H6         139.6730   126.4990    92.0680 ha         1 YBK       0.150000
     46 H8         132.8450   123.9160   100.6390 h1         1 YBK       0.050033
     47 H9         132.3890   124.3590    98.9840 h1         1 YBK       0.050033
     48 H10        134.0790   123.9540    99.3650 h1         1 YBK       0.050033
     49 H11        133.8840   125.3350    97.5000 ha         1 YBK       0.146000
     50 H12        135.0820   129.3790    96.7020 ha         1 YBK       0.120000
     51 H13        135.0400   131.0390    98.6130 ha         1 YBK       0.129000
     52 H14        136.3120   128.1510    95.4140 hn         1 YBK       0.317500
     53 H15        138.0260   126.6170    94.8780 ho         1 YBK       0.471000
     54 H16        134.4370   126.5770    85.5900 ha         1 YBK       0.135500
     55 H17        132.7190   128.9030    88.7490 ha         1 YBK       0.135500
     56 H18        134.6960   128.4510    90.1530 ha         1 YBK       0.125500
     57 H19        141.6610   127.1270    91.5020 hc         1 YBK       0.049867
     58 H20        141.4700   125.4740    90.9100 hc         1 YBK       0.049867
     59 H21        142.6880   126.5400    90.2050 hc         1 YBK       0.049867
     60 H22        140.8850   129.0770    90.0810 hc         1 YBK       0.049867
     61 H23        142.0680   128.5330    88.8920 hc         1 YBK       0.049867
     62 H24        140.4010   128.8390    88.4010 hc         1 YBK       0.049867
     63 H25        140.8070   125.3020    88.5800 ho         1 YBK       0.448000
     64 C14        134.7150   126.9030    95.5500 c          1 YBK       0.609700
     65 O02        133.4100   125.7770   100.1220 os         1 YBK      -0.300100
     66 H7         136.4070   126.1270    86.9790 ha         1 YBK       0.125500
@<TRIPOS>BOND
     1     1    16 1   
     2     1    40 1   
     3     1    41 1   
     4     1    42 1   
     5     2     3 ar  
     6     2    17 ar  
     7     3    10 ar  
     8     3    14 ar  
     9     4    19 1   
    10     4    20 1   
    11     4    43 1   
    12     4    44 1   
    13     5     6 ar  
    14     5    20 1   
    15     5    24 ar  
    16     6     7 ar  
    17     6    45 1   
    18     7    22 ar  
    19     7    30 1   
    20     8    25 ar  
    21     8    26 ar  
    22     8    66 1   
    23     9    46 1   
    24     9    47 1   
    25     9    48 1   
    26     9    65 1   
    27    10    11 ar  
    28    10    65 1   
    29    11    12 ar  
    30    11    49 1   
    31    12    13 ar  
    32    12    64 1   
    33    13    14 ar  
    34    13    50 1   
    35    14    15 ar  
    36    15    16 ar  
    37    15    51 1   
    38    16    17 ar  
    39    18    64 2   
    40    19    52 1   
    41    19    64 1   
    42    20    21 1   
    43    20    34 1   
    44    21    53 1   
    45    22    23 ar  
    46    22    35 1   
    47    23    24 ar  
    48    23    25 1   
    49    25    29 ar  
    50    26    27 ar  
    51    26    54 1   
    52    27    28 ar  
    53    27    36 1   
    54    28    29 ar  
    55    28    55 1   
    56    29    56 1   
    57    30    31 1   
    58    30    32 1   
    59    30    33 1   
    60    31    57 1   
    61    31    58 1   
    62    31    59 1   
    63    32    60 1   
    64    32    61 1   
    65    32    62 1   
    66    33    63 1   
    67    34    37 1   
    68    34    38 1   
    69    34    39 1   
@<TRIPOS>SUBSTRUCTURE
     1 YBK         1 TEMP              0 ****  ****    0 ROOT
