@<TRIPOS>MOLECULE
YBK
   66    69     1     0     0
SMALL
No Charge or Current Charge


@<TRIPOS>ATOM
      1 C10        135.7620   131.3210   101.5440 c3         1 YBK      -0.145400
      2 N12        133.7060   128.2660   101.0910 nb         1 YBK      -0.257000
      3 C13        133.9080   127.9010    99.7960 ca         1 YBK       0.181000
      4 C17        135.7630   127.3440    93.4420 c3         1 YBK       0.083000
      5 C20        137.5820   126.9140    91.6870 ca         1 YBK       0.315300
      6 C21        138.9350   127.0350    91.2960 ca         1 YBK      -0.085000
      7 C22        139.2880   127.1770    89.9300 ca         1 YBK      -0.128300
      8 C28        135.7140   126.3580    87.2870 ca         1 YBK      -0.048000
      9 C01        131.7560   124.8310    99.5790 c3         1 YBK       0.139900
     10 C03        133.2790   126.7600    99.2400 ca         1 YBK       0.197100
     11 C04        133.5120   126.4120    97.8880 ca         1 YBK      -0.203000
     12 C05        134.3670   127.1820    97.0650 ca         1 YBK      -0.071600
     13 C06        134.9920   128.3190    97.6280 ca         1 YBK      -0.134000
     14 C07        134.7650   128.6710    98.9710 ca         1 YBK      -0.017000
     15 C08        135.3910   129.8050    99.5230 ca         1 YBK      -0.121000
     16 C09        135.1350   130.1150   100.8700 ca         1 YBK       0.295300
     17 N11        134.3070   129.3520   101.6190 nb         1 YBK      -0.314000
     18 O15        134.0570   125.7810    95.1320 o          1 YBK      -0.562100
     19 N16        135.4300   127.5690    94.8640 ns         1 YBK      -0.521900
     20 C18        137.1900   126.7460    93.1820 c3         1 YBK       0.072700
     21 O19        138.1190   127.4810    94.0270 oh         1 YBK      -0.647000
     22 C23        138.2140   127.1850    89.0020 ca         1 YBK       0.166000
     23 C25        136.8710   127.0330    89.4610 cp         1 YBK       0.373500
     24 N26        136.5800   126.9100    90.7760 nb         1 YBK      -0.647000
     25 C27        135.6800   127.0220    88.5430 cp         1 YBK      -0.164500
     26 C29        134.5920   126.3480    86.4410 ca         1 YBK      -0.159500
     27 C30        133.4120   126.9940    86.8350 ca         1 YBK       0.187000
     28 C32        133.3450   127.6460    88.0730 ca         1 YBK      -0.159500
     29 C33        134.4660   127.6580    88.9210 ca         1 YBK      -0.048000
     30 C34        140.7610   127.3410    89.4750 c3         1 YBK       0.240300
     31 C35        141.7980   127.0520    90.5890 c3         1 YBK      -0.105600
     32 C36        141.0040   128.7610    88.9140 c3         1 YBK      -0.105600
     33 O37        141.0350   126.4040    88.4340 oh         1 YBK      -0.644000
     34 C38        137.2620   125.2170    93.5460 c3         1 YBK       0.279000
     35 F24        138.4560   127.3670    87.6810 f          1 YBK      -0.149000
     36 F31        132.3340   126.9820    86.0210 f          1 YBK      -0.175000
     37 F39        137.0610   125.0060    94.8680 f          1 YBK      -0.105667
     38 F40        138.4750   124.6980    93.2420 f          1 YBK      -0.105667
     39 F41        136.3350   124.5000    92.8700 f          1 YBK      -0.105667
     40 H1         135.9780   131.1210   102.6000 hc         1 YBK       0.056700
     41 H2         136.7060   131.6000   101.0610 hc         1 YBK       0.056700
     42 H3         135.0910   132.1860   101.4950 hc         1 YBK       0.056700
     43 H4         135.7000   128.3170    92.9360 h1         1 YBK       0.087700
     44 H5         135.0010   126.7040    92.9790 h1         1 YBK       0.087700
     45 H6         139.6900   127.0250    92.0750 ha         1 YBK       0.150000
     46 H8         131.1510   124.3980   100.3840 h1         1 YBK       0.050033
     47 H9         131.0850   125.0770    98.7460 h1         1 YBK       0.050033
     48 H10        132.4710   124.0690    99.2450 h1         1 YBK       0.050033
     49 H11        133.0320   125.5380    97.4590 ha         1 YBK       0.146000
     50 H12        135.6590   128.9420    97.0370 ha         1 YBK       0.120000
     51 H13        136.0550   130.4280    98.9310 ha         1 YBK       0.129000
     52 H14        135.7900   128.4010    95.3140 hn         1 YBK       0.317500
     53 H15        137.8850   127.2840    94.9610 ho         1 YBK       0.471000
     54 H16        134.6330   125.8350    85.4830 ha         1 YBK       0.135500
     55 H17        132.4260   128.1420    88.3750 ha         1 YBK       0.135500
     56 H18        134.3960   128.1720    89.8780 ha         1 YBK       0.125500
     57 H19        141.7350   127.7980    91.3900 hc         1 YBK       0.049867
     58 H20        141.6460   126.0570    91.0260 hc         1 YBK       0.049867
     59 H21        142.8190   127.0880    90.1890 hc         1 YBK       0.049867
     60 H22        140.7870   129.5170    89.6780 hc         1 YBK       0.049867
     61 H23        142.0480   128.8840    88.6010 hc         1 YBK       0.049867
     62 H24        140.3710   128.9690    88.0450 hc         1 YBK       0.049867
     63 H25        140.8550   125.5130    88.8020 ho         1 YBK       0.448000
     64 C14        134.5910   126.7690    95.6170 c          1 YBK       0.609700
     65 O02        132.4400   126.0060   100.0480 os         1 YBK      -0.300100
     66 H7         136.6110   125.8300    86.9690 ha         1 YBK       0.125500
@<TRIPOS>BOND
     1     1    16 1   
     2     1    40 1   
     3     1    41 1   
     4     1    42 1   
     5     2     3 ar  
     6     2    17 ar  
     7     3    10 ar  
     8     3    14 ar  
     9     4    19 1   
    10     4    20 1   
    11     4    43 1   
    12     4    44 1   
    13     5     6 ar  
    14     5    20 1   
    15     5    24 ar  
    16     6     7 ar  
    17     6    45 1   
    18     7    22 ar  
    19     7    30 1   
    20     8    25 ar  
    21     8    26 ar  
    22     8    66 1   
    23     9    46 1   
    24     9    47 1   
    25     9    48 1   
    26     9    65 1   
    27    10    11 ar  
    28    10    65 1   
    29    11    12 ar  
    30    11    49 1   
    31    12    13 ar  
    32    12    64 1   
    33    13    14 ar  
    34    13    50 1   
    35    14    15 ar  
    36    15    16 ar  
    37    15    51 1   
    38    16    17 ar  
    39    18    64 2   
    40    19    52 1   
    41    19    64 1   
    42    20    21 1   
    43    20    34 1   
    44    21    53 1   
    45    22    23 ar  
    46    22    35 1   
    47    23    24 ar  
    48    23    25 1   
    49    25    29 ar  
    50    26    27 ar  
    51    26    54 1   
    52    27    28 ar  
    53    27    36 1   
    54    28    29 ar  
    55    28    55 1   
    56    29    56 1   
    57    30    31 1   
    58    30    32 1   
    59    30    33 1   
    60    31    57 1   
    61    31    58 1   
    62    31    59 1   
    63    32    60 1   
    64    32    61 1   
    65    32    62 1   
    66    33    63 1   
    67    34    37 1   
    68    34    38 1   
    69    34    39 1   
@<TRIPOS>SUBSTRUCTURE
     1 YBK         1 TEMP              0 ****  ****    0 ROOT
