@<TRIPOS>MOLECULE
YBN
   51    54     1     0     0
SMALL
abcg2


@<TRIPOS>ATOM
      1 C            7.7360    -1.8460     0.5780 c3         1 YBN       0.148900
      2 N           -4.4640     4.0850    -0.6810 n7         1 YBN      -0.859400
      3 O            6.5320    -1.2940     1.0730 os         1 YBN      -0.341100
      4 S            0.0020    -1.6690    -0.2390 ss         1 YBN       0.151400
      5 C1           5.8280    -0.4690     0.2760 ca         1 YBN       0.136100
      6 O1           1.5710     0.5610     0.4190 os         1 YBN      -0.449100
      7 C2           6.1900    -0.1360    -1.0280 ca         1 YBN      -0.187000
      8 O2           0.0580     1.8940     1.3970 o          1 YBN      -0.464000
      9 C3           5.3880     0.7350    -1.7580 ca         1 YBN      -0.078000
     10 O3          -2.6530     0.8120     1.1580 os         1 YBN      -0.333100
     11 C4           4.2380     1.2760    -1.2110 ca         1 YBN      -0.125000
     12 C5           3.8750     0.9430     0.0930 ca         1 YBN      -0.063300
     13 C6           2.6220     1.5010     0.6950 c3         1 YBN       0.215900
     14 C7           0.3420     0.8750     0.8180 c          1 YBN       0.633300
     15 C8          -0.5950    -0.1910     0.4600 cc         1 YBN      -0.166600
     16 C9          -1.6000    -2.3170    -0.3190 ca         1 YBN      -0.159000
     17 C10         -1.9610    -3.5770    -0.7920 ca         1 YBN      -0.089000
     18 C11         -3.2950    -3.9300    -0.7490 ca         1 YBN      -0.088000
     19 C12         -4.2600    -3.0530    -0.2320 ca         1 YBN      -0.123000
     20 C13         -3.9020    -1.8080     0.2350 ca         1 YBN      -0.055000
     21 C14         -2.5560    -1.4220     0.1830 ca         1 YBN      -0.120800
     22 C15         -1.9510    -0.1940     0.6240 cd         1 YBN       0.196900
     23 C16         -3.4820     1.5690     0.2510 c6         1 YBN       0.182300
     24 C17         -4.4260     2.4060     1.0890 c6         1 YBN      -0.091900
     25 C18         -5.2980     3.2570     0.1720 c6         1 YBN       0.159800
     26 C19         -3.6040     3.2840    -1.5350 c6         1 YBN       0.159800
     27 C20         -2.6610     2.4450    -0.6800 c6         1 YBN      -0.091900
     28 C21          4.6670     0.0750     0.8280 ca         1 YBN      -0.120000
     29 H            8.1450    -2.4600     1.3770 h1         1 YBN       0.040700
     30 HA           7.5680    -2.4770    -0.2990 h1         1 YBN       0.040700
     31 HB           8.4640    -1.0730     0.3210 h1         1 YBN       0.040700
     32 H2           7.0840    -0.5350    -1.4870 ha         1 YBN       0.117000
     33 H3           5.6760     0.9900    -2.7690 ha         1 YBN       0.113000
     34 H4           3.6270     1.9570    -1.7900 ha         1 YBN       0.117000
     35 H6           2.3750     2.4690     0.2570 h1         1 YBN       0.057700
     36 H6A          2.7250     1.6290     1.7740 h1         1 YBN       0.057700
     37 H10         -1.2180    -4.2610    -1.1790 ha         1 YBN       0.124000
     38 H11         -3.5990    -4.9020    -1.1130 ha         1 YBN       0.114000
     39 H12         -5.2960    -3.3610    -0.1990 ha         1 YBN       0.116000
     40 H13         -4.6520    -1.1430     0.6440 ha         1 YBN       0.122000
     41 H16         -4.0720     0.8710    -0.3570 h1         1 YBN       0.034700
     42 H17         -5.0590     1.7650     1.7060 hc         1 YBN       0.065200
     43 H17A        -3.8510     3.0560     1.7550 hc         1 YBN       0.065200
     44 H18         -5.9410     3.9010     0.7740 h1         1 YBN       0.030200
     45 H18A        -5.9630     2.5910    -0.4020 h1         1 YBN       0.030200
     46 H19         -4.1720     2.6140    -2.2010 h1         1 YBN       0.030200
     47 H19A        -3.0230     3.9470    -2.1770 h1         1 YBN       0.030200
     48 H20         -2.0110     3.0990    -0.0950 hc         1 YBN       0.065200
     49 H20A        -2.0270     1.8370    -1.3300 hc         1 YBN       0.065200
     50 H21          4.3960    -0.1830     1.8450 ha         1 YBN       0.130000
     51 HN          -5.0520     4.6750    -1.2550 hn         1 YBN       0.412000
@<TRIPOS>BOND
     1     1     3 1   
     2     1    29 1   
     3     1    30 1   
     4     1    31 1   
     5     2    25 1   
     6     2    26 1   
     7     2    51 1   
     8     3     5 1   
     9     4    15 1   
    10     4    16 1   
    11     5     7 ar  
    12     5    28 ar  
    13     6    13 1   
    14     6    14 1   
    15     7     9 ar  
    16     7    32 1   
    17     8    14 2   
    18     9    11 ar  
    19     9    33 1   
    20    10    22 1   
    21    10    23 1   
    22    11    12 ar  
    23    11    34 1   
    24    12    13 1   
    25    12    28 ar  
    26    13    35 1   
    27    13    36 1   
    28    14    15 1   
    29    15    22 2   
    30    16    17 ar  
    31    16    21 ar  
    32    17    18 ar  
    33    17    37 1   
    34    18    19 ar  
    35    18    38 1   
    36    19    20 ar  
    37    19    39 1   
    38    20    21 ar  
    39    20    40 1   
    40    21    22 1   
    41    23    24 1   
    42    23    27 1   
    43    23    41 1   
    44    24    25 1   
    45    24    42 1   
    46    24    43 1   
    47    25    44 1   
    48    25    45 1   
    49    26    27 1   
    50    26    46 1   
    51    26    47 1   
    52    27    48 1   
    53    27    49 1   
    54    28    50 1   
@<TRIPOS>SUBSTRUCTURE
     1 YBN         1 TEMP              0 ****  ****    0 ROOT
