@<TRIPOS>MOLECULE
YBN
   51    54     1     0     0
SMALL
No Charge or Current Charge


@<TRIPOS>ATOM
      1 C            7.9320    -1.8770     0.8350 c3         1 YBN       0.148900
      2 N           -4.6120     4.1030    -0.6470 n7         1 YBN      -0.859400
      3 O            6.6650    -1.3000     1.1980 os         1 YBN      -0.341100
      4 S           -0.0630    -1.7710    -0.5650 ss         1 YBN       0.151400
      5 C1           5.9880    -0.4300     0.3680 ca         1 YBN       0.136100
      6 O1           1.6630     0.5360     0.2250 os         1 YBN      -0.449100
      7 C2           6.4860    -0.0400    -0.8940 ca         1 YBN      -0.187000
      8 O2           0.0560     1.8640     1.1420 o          1 YBN      -0.464000
      9 C3           5.7490     0.8480    -1.6960 ca         1 YBN      -0.078000
     10 O3          -2.5850     0.7750     1.0490 os         1 YBN      -0.333100
     11 C4           4.5180     1.3520    -1.2430 ca         1 YBN      -0.125000
     12 C5           4.0140     0.9710     0.0160 ca         1 YBN      -0.063300
     13 C6           2.6790     1.5130     0.5090 c3         1 YBN       0.215900
     14 C7           0.3730     0.8190     0.5890 c          1 YBN       0.633300
     15 C8          -0.5680    -0.2620     0.2420 cc         1 YBN      -0.166600
     16 C9          -1.7570    -2.3630    -0.4920 ca         1 YBN      -0.159000
     17 C10         -2.1940    -3.6180    -0.9460 ca         1 YBN      -0.089000
     18 C11         -3.5530    -3.9590    -0.7980 ca         1 YBN      -0.088000
     19 C12         -4.4510    -3.0540    -0.1910 ca         1 YBN      -0.123000
     20 C13         -3.9980    -1.7990     0.2620 ca         1 YBN      -0.055000
     21 C14         -2.6430    -1.4700     0.0830 ca         1 YBN      -0.120800
     22 C15         -1.9260    -0.2710     0.4630 cd         1 YBN       0.196900
     23 C16         -3.5580     1.5290     0.2960 c6         1 YBN       0.182300
     24 C17         -4.3060     2.4980     1.2380 c6         1 YBN      -0.091900
     25 C18         -5.3000     3.3760     0.4450 c6         1 YBN       0.159800
     26 C19         -3.9110     3.2010    -1.5900 c6         1 YBN       0.159800
     27 C20         -2.8800     2.3170    -0.8520 c6         1 YBN      -0.091900
     28 C21          4.7560     0.0790     0.8140 ca         1 YBN      -0.120000
     29 H            8.2920    -2.5370     1.6340 h1         1 YBN       0.040700
     30 HA           7.8410    -2.4730    -0.0820 h1         1 YBN       0.040700
     31 HB           8.6850    -1.0950     0.6750 h1         1 YBN       0.040700
     32 H2           7.4350    -0.4150    -1.2680 ha         1 YBN       0.117000
     33 H3           6.1320     1.1470    -2.6700 ha         1 YBN       0.113000
     34 H4           3.9540     2.0360    -1.8730 ha         1 YBN       0.117000
     35 H6           2.4570     2.4630     0.0050 h1         1 YBN       0.057700
     36 H6A          2.7410     1.7090     1.5880 h1         1 YBN       0.057700
     37 H10         -1.4950    -4.3170    -1.4000 ha         1 YBN       0.124000
     38 H11         -3.9090    -4.9270    -1.1430 ha         1 YBN       0.114000
     39 H12         -5.4960    -3.3300    -0.0650 ha         1 YBN       0.116000
     40 H13         -4.6870    -1.1160     0.7530 ha         1 YBN       0.122000
     41 H16         -4.2900     0.8390    -0.1430 h1         1 YBN       0.034700
     42 H17         -4.8450     1.9300     2.0070 hc         1 YBN       0.065200
     43 H17A        -3.5850     3.1390     1.7630 hc         1 YBN       0.065200
     44 H18         -5.7770     4.0980     1.1230 h1         1 YBN       0.030200
     45 H18A        -6.0930     2.7420     0.0210 h1         1 YBN       0.030200
     46 H19         -4.6470     2.5600    -2.0990 h1         1 YBN       0.030200
     47 H19A        -3.4010     3.7980    -2.3600 h1         1 YBN       0.030200
     48 H20         -2.0770     2.9490    -0.4500 hc         1 YBN       0.065200
     49 H20A        -2.4150     1.6250    -1.5670 hc         1 YBN       0.065200
     50 H21          4.3750    -0.2260     1.7850 ha         1 YBN       0.130000
     51 HN          -5.3070     4.6540    -1.1690 hn         1 YBN       0.412000
@<TRIPOS>BOND
     1     1     3 1   
     2     1    29 1   
     3     1    30 1   
     4     1    31 1   
     5     2    25 1   
     6     2    26 1   
     7     2    51 1   
     8     3     5 1   
     9     4    15 1   
    10     4    16 1   
    11     5     7 ar  
    12     5    28 ar  
    13     6    13 1   
    14     6    14 1   
    15     7     9 ar  
    16     7    32 1   
    17     8    14 2   
    18     9    11 ar  
    19     9    33 1   
    20    10    22 1   
    21    10    23 1   
    22    11    12 ar  
    23    11    34 1   
    24    12    13 1   
    25    12    28 ar  
    26    13    35 1   
    27    13    36 1   
    28    14    15 1   
    29    15    22 2   
    30    16    17 ar  
    31    16    21 ar  
    32    17    18 ar  
    33    17    37 1   
    34    18    19 ar  
    35    18    38 1   
    36    19    20 ar  
    37    19    39 1   
    38    20    21 ar  
    39    20    40 1   
    40    21    22 1   
    41    23    24 1   
    42    23    27 1   
    43    23    41 1   
    44    24    25 1   
    45    24    42 1   
    46    24    43 1   
    47    25    44 1   
    48    25    45 1   
    49    26    27 1   
    50    26    46 1   
    51    26    47 1   
    52    27    48 1   
    53    27    49 1   
    54    28    50 1   
@<TRIPOS>SUBSTRUCTURE
     1 YBN         1 TEMP              0 ****  ****    0 ROOT
