@<TRIPOS>MOLECULE
YBO
   55    59     1     0     0
SMALL
No Charge or Current Charge


@<TRIPOS>ATOM
      1 C10         13.4460    -2.6230    -0.5760 cc         1 YBO      -0.235300
      2 C13         11.5480    -4.9170    -2.2300 cx         1 YBO      -0.134700
      3 C15         10.4650    -5.8890    -1.8180 cx         1 YBO      -0.122400
      4 C17         12.1810    -5.2770     1.4830 cc         1 YBO       0.480900
      5 C20         12.0710    -8.9780     1.6420 c          1 YBO       0.632500
      6 C26         13.2640    -2.0250     0.6990 cc         1 YBO       0.314500
      7 C28         13.0280    -0.1220     2.3110 ca         1 YBO      -0.066500
      8 N01         19.8410    -3.6520    -4.3020 n8         1 YBO      -1.007100
      9 O03         20.6270    -2.5830    -2.2620 o          1 YBO      -0.533500
     10 O04         20.1190    -1.2030    -4.3640 o          1 YBO      -0.533500
     11 C05         18.0730    -2.2050    -2.9570 ca         1 YBO      -0.374500
     12 C06         17.2110    -1.3050    -3.6160 ca         1 YBO       0.012000
     13 C07         15.8580    -1.2290    -3.2490 ca         1 YBO      -0.163000
     14 C08         15.3400    -2.0440    -2.2260 ca         1 YBO       0.013700
     15 C09         13.8600    -1.9230    -1.8570 c3         1 YBO       0.045200
     16 C11         13.0530    -3.9310    -0.4590 cd         1 YBO      -0.066300
     17 C12         12.9380    -4.9360    -1.5970 c3         1 YBO       0.007900
     18 C14         11.1160    -6.0130    -3.1760 cx         1 YBO      -0.122400
     19 N16         12.6550    -4.0800     0.8960 na         1 YBO       0.164300
     20 N18         12.4830    -6.4710     0.9920 nd         1 YBO      -0.626000
     21 C19         11.9810    -7.4660     1.8470 cd         1 YBO       0.257500
     22 O21         11.5850    -9.7280     2.4830 o          1 YBO      -0.694500
     23 O22         12.6280    -9.4130     0.6390 o          1 YBO      -0.694500
     24 C23         11.3600    -6.9530     2.9790 cc         1 YBO      -0.241000
     25 S24         11.3940    -5.2110     3.0340 ss         1 YBO      -0.078400
     26 N25         12.7780    -2.8730     1.5820 nd         1 YBO      -0.509800
     27 C27         13.6170    -0.6500     1.1330 ca         1 YBO      -0.117500
     28 C29         13.3570     1.1630     2.7770 ca         1 YBO      -0.160000
     29 C30         14.3030     1.9340     2.0910 ca         1 YBO       0.163000
     30 F31         14.6240     3.1660     2.5420 f          1 YBO      -0.187000
     31 C32         14.9320     1.4190     0.9520 ca         1 YBO      -0.160000
     32 C33         14.6010     0.1350     0.4830 ca         1 YBO      -0.066500
     33 C34         16.2060    -2.9470    -1.5750 ca         1 YBO      -0.159000
     34 C35         17.5590    -3.0260    -1.9360 ca         1 YBO       0.259000
     35 F36         18.3410    -3.9260    -1.3010 f          1 YBO      -0.165000
     36 H1          11.2260    -3.9100    -2.4890 hc         1 YBO       0.056700
     37 H2           9.4430    -5.5190    -1.7770 hc         1 YBO       0.078450
     38 H3          10.6990    -6.6540    -1.0840 hc         1 YBO       0.078450
     39 H4          12.2880    -0.6970     2.8630 ha         1 YBO       0.128500
     40 H5          20.5890    -4.1500    -3.8250 hn         1 YBO       0.481000
     41 H6          18.9990    -4.1270    -3.9910 hn         1 YBO       0.481000
     42 H7          17.5800    -0.6580    -4.4120 ha         1 YBO       0.139000
     43 H8          15.2050    -0.5280    -3.7650 ha         1 YBO       0.120000
     44 H9          13.5630    -0.8690    -1.8170 hc         1 YBO       0.061700
     45 H10         13.2680    -2.3250    -2.6870 hc         1 YBO       0.061700
     46 H11         13.2260    -5.9480    -1.3020 hc         1 YBO       0.078200
     47 H12         13.6680    -4.6800    -2.3730 hc         1 YBO       0.078200
     48 H13         10.5300    -5.7300    -4.0480 hc         1 YBO       0.078450
     49 H14         11.7930    -6.8490    -3.3370 hc         1 YBO       0.078450
     50 H16         10.8970    -7.5010     3.7890 h4         1 YBO       0.169000
     51 H17         12.8820     1.5590     3.6710 ha         1 YBO       0.127000
     52 H18         15.6880     2.0090     0.4400 ha         1 YBO       0.127000
     53 H19         15.1580    -0.2450    -0.3630 ha         1 YBO       0.128500
     54 H20         15.8430    -3.5970    -0.7860 ha         1 YBO       0.157000
     55 S02         19.7970    -2.2760    -3.4240 sy         1 YBO       1.160600
@<TRIPOS>BOND
     1     1     6 1   
     2     1    15 1   
     3     1    16 2   
     4     2     3 1   
     5     2    17 1   
     6     2    18 1   
     7     2    36 1   
     8     3    18 1   
     9     3    37 1   
    10     3    38 1   
    11     4    19 1   
    12     4    20 2   
    13     4    25 1   
    14     5    21 1   
    15     5    22 1   
    16     5    23 1   
    17     6    26 2   
    18     6    27 1   
    19     7    27 ar  
    20     7    28 ar  
    21     7    39 1   
    22     8    40 1   
    23     8    41 1   
    24     8    55 1   
    25     9    55 2   
    26    10    55 2   
    27    11    12 ar  
    28    11    34 ar  
    29    11    55 1   
    30    12    13 ar  
    31    12    42 1   
    32    13    14 ar  
    33    13    43 1   
    34    14    15 1   
    35    14    33 ar  
    36    15    44 1   
    37    15    45 1   
    38    16    17 1   
    39    16    19 1   
    40    17    46 1   
    41    17    47 1   
    42    18    48 1   
    43    18    49 1   
    44    19    26 1   
    45    20    21 1   
    46    21    24 2   
    47    24    25 1   
    48    24    50 1   
    49    27    32 ar  
    50    28    29 ar  
    51    28    51 1   
    52    29    30 1   
    53    29    31 ar  
    54    31    32 ar  
    55    31    52 1   
    56    32    53 1   
    57    33    34 ar  
    58    33    54 1   
    59    34    35 1   
@<TRIPOS>SUBSTRUCTURE
     1 YBO         1 TEMP              0 ****  ****    0 ROOT
