@<TRIPOS>MOLECULE
YBO
   55    59     1     0     0
SMALL
abcg2


@<TRIPOS>ATOM
      1 C10         13.5240    -2.6840    -0.6080 cc         1 YBO      -0.235300
      2 C13         11.6200    -4.8940    -2.2630 cx         1 YBO      -0.134700
      3 C15         10.4160    -5.5800    -1.6950 cx         1 YBO      -0.122400
      4 C17         12.4510    -5.3190     1.5160 cc         1 YBO       0.480900
      5 C20         11.7120    -8.8620     1.5510 c          1 YBO       0.632500
      6 C26         13.4170    -2.1450     0.7000 cc         1 YBO       0.314500
      7 C28         12.8130    -0.1970     2.1110 ca         1 YBO      -0.066500
      8 N01         20.0460    -3.5710    -4.3150 n8         1 YBO      -1.007100
      9 O03         20.6050    -2.5040    -2.1450 o          1 YBO      -0.533500
     10 O04         20.1050    -1.0910    -4.1610 o          1 YBO      -0.533500
     11 C05         18.1130    -2.1900    -2.9090 ca         1 YBO      -0.374500
     12 C06         17.3080    -1.1630    -3.3870 ca         1 YBO       0.012000
     13 C07         15.9720    -1.1050    -3.0320 ca         1 YBO      -0.163000
     14 C08         15.4090    -2.0660    -2.1920 ca         1 YBO       0.013700
     15 C09         13.9340    -1.9980    -1.8670 c3         1 YBO       0.045200
     16 C11         13.1290    -3.9960    -0.4940 cd         1 YBO      -0.066300
     17 C12         12.9700    -5.0030    -1.5860 c3         1 YBO       0.007900
     18 C14         11.0410    -6.0830    -2.9630 cx         1 YBO      -0.122400
     19 N16         12.8270    -4.1740     0.8270 na         1 YBO       0.164300
     20 N18         12.3340    -6.4870     1.0000 nd         1 YBO      -0.626000
     21 C19         11.9410    -7.4090     1.9360 cd         1 YBO       0.257500
     22 O21         11.3870    -9.6160     2.4860 o          1 YBO      -0.694500
     23 O22         11.8640    -9.1420     0.3500 o          1 YBO      -0.694500
     24 C23         11.7730    -6.8990     3.1840 cc         1 YBO      -0.241000
     25 S24         12.1060    -5.2120     3.2070 ss         1 YBO      -0.078400
     26 N25         12.9970    -3.0590     1.5470 nd         1 YBO      -0.509800
     27 C27         13.6450    -0.7670     1.1450 ca         1 YBO      -0.117500
     28 C29         12.9950     1.1110     2.5280 ca         1 YBO      -0.160000
     29 C30         14.0220     1.8490     1.9690 ca         1 YBO       0.163000
     30 F31         14.1940     3.1220     2.3560 f          1 YBO      -0.187000
     31 C32         14.8730     1.3160     1.0210 ca         1 YBO      -0.160000
     32 C33         14.6790     0.0040     0.6160 ca         1 YBO      -0.066500
     33 C34         16.2170    -3.0880    -1.7070 ca         1 YBO      -0.159000
     34 C35         17.5450    -3.1390    -2.0740 ca         1 YBO       0.259000
     35 F36         18.2950    -4.1470    -1.6210 f          1 YBO      -0.165000
     36 H1          11.4370    -3.9330    -2.7340 hc         1 YBO       0.056700
     37 H2           9.4630    -5.0720    -1.7600 hc         1 YBO       0.078450
     38 H3          10.5470    -6.1780    -0.8040 hc         1 YBO       0.078450
     39 H4          12.0010    -0.7760     2.5290 ha         1 YBO       0.128500
     40 H5          19.9240    -4.4620    -3.8470 hn         1 YBO       0.481000
     41 H6          19.5240    -3.5310    -5.1840 hn         1 YBO       0.481000
     42 H7          17.7250    -0.4060    -4.0360 ha         1 YBO       0.139000
     43 H8          15.3590    -0.2980    -3.4110 ha         1 YBO       0.120000
     44 H9          13.6270    -0.9510    -1.8380 hc         1 YBO       0.061700
     45 H10         13.3920    -2.4320    -2.7130 hc         1 YBO       0.061700
     46 H11         13.1230    -6.0120    -1.2100 hc         1 YBO       0.078200
     47 H12         13.7550    -4.8190    -2.3240 hc         1 YBO       0.078200
     48 H13         10.5190    -5.9240    -3.8970 hc         1 YBO       0.078450
     49 H14         11.5930    -7.0140    -2.9150 hc         1 YBO       0.078450
     50 H16         11.4750    -7.4160     4.0820 h4         1 YBO       0.169000
     51 H17         12.3410     1.5530     3.2690 ha         1 YBO       0.127000
     52 H18         15.6790     1.9090     0.6090 ha         1 YBO       0.127000
     53 H19         15.3620    -0.4190    -0.1090 ha         1 YBO       0.128500
     54 H20         15.8280    -3.8480    -1.0420 ha         1 YBO       0.157000
     55 S02         19.8330    -2.2630    -3.3490 sy         1 YBO       1.160600
@<TRIPOS>BOND
     1     1     6 1   
     2     1    15 1   
     3     1    16 2   
     4     2     3 1   
     5     2    17 1   
     6     2    18 1   
     7     2    36 1   
     8     3    18 1   
     9     3    37 1   
    10     3    38 1   
    11     4    19 1   
    12     4    20 2   
    13     4    25 1   
    14     5    21 1   
    15     5    22 1   
    16     5    23 1   
    17     6    26 2   
    18     6    27 1   
    19     7    27 ar  
    20     7    28 ar  
    21     7    39 1   
    22     8    40 1   
    23     8    41 1   
    24     8    55 1   
    25     9    55 2   
    26    10    55 2   
    27    11    12 ar  
    28    11    34 ar  
    29    11    55 1   
    30    12    13 ar  
    31    12    42 1   
    32    13    14 ar  
    33    13    43 1   
    34    14    15 1   
    35    14    33 ar  
    36    15    44 1   
    37    15    45 1   
    38    16    17 1   
    39    16    19 1   
    40    17    46 1   
    41    17    47 1   
    42    18    48 1   
    43    18    49 1   
    44    19    26 1   
    45    20    21 1   
    46    21    24 2   
    47    24    25 1   
    48    24    50 1   
    49    27    32 ar  
    50    28    29 ar  
    51    28    51 1   
    52    29    30 1   
    53    29    31 ar  
    54    31    32 ar  
    55    31    52 1   
    56    32    53 1   
    57    33    34 ar  
    58    33    54 1   
    59    34    35 1   
@<TRIPOS>SUBSTRUCTURE
     1 YBO         1 TEMP              0 ****  ****    0 ROOT
