@<TRIPOS>MOLECULE
YBP
   27    28     1     0     0
SMALL
abcg2


@<TRIPOS>ATOM
      1 C1         -32.0980     9.2770     4.1540 c3         1 YBP      -0.096100
      2 C2         -32.8820     9.5670     5.4310 c3         1 YBP      -0.160400
      3 C3         -34.3890     9.3800     5.4020 c          1 YBP       0.614100
      4 N1         -34.9600     9.3670     4.1580 ns         1 YBP      -0.325900
      5 C4         -36.2970     9.2270     3.7840 ca         1 YBP       0.500900
      6 C5         -37.3400     8.9880     4.7160 ca         1 YBP      -0.162000
      7 C6         -38.6100     8.8520     4.2340 ca         1 YBP      -0.046000
      8 C7         -38.8720     8.9530     2.8470 ca         1 YBP      -0.105000
      9 C8         -40.1670     8.8220     2.3010 ca         1 YBP      -0.077000
     10 C9         -40.3580     8.9310     0.9470 ca         1 YBP      -0.114000
     11 C10        -39.2660     9.1750     0.0920 ca         1 YBP      -0.088000
     12 C11        -38.0000     9.3050     0.6050 ca         1 YBP       0.133000
     13 C12        -37.7510     9.1980     2.0000 ca         1 YBP       0.316000
     14 N2         -36.4960     9.3270     2.4860 nb         1 YBP      -0.729000
     15 CL1        -36.6670     9.6100    -0.4810 cl         1 YBP      -0.189000
     16 O1         -35.0290     9.2740     6.4400 o          1 YBP      -0.586100
     17 H1         -31.0310     9.3890     4.3480 hc         1 YBP       0.044700
     18 H2         -32.2690     8.2580     3.8020 hc         1 YBP       0.044700
     19 H3         -32.3520     9.9690     3.3480 hc         1 YBP       0.044700
     20 H4         -32.5280     8.9380     6.2490 hc         1 YBP       0.076200
     21 H5         -32.7170    10.6010     5.7510 hc         1 YBP       0.076200
     22 H6         -34.3450     9.4890     3.3660 hn         1 YBP       0.171000
     23 H7         -37.1160     8.9160     5.7660 ha         1 YBP       0.162000
     24 H8         -39.4350     8.6650     4.9110 ha         1 YBP       0.124000
     25 H9         -40.9990     8.6360     2.9680 ha         1 YBP       0.119000
     26 H10        -41.3480     8.8320     0.5210 ha         1 YBP       0.121000
     27 H11        -39.4220     9.2620    -0.9750 ha         1 YBP       0.130000
@<TRIPOS>BOND
     1     1     2 1   
     2     1    17 1   
     3     1    18 1   
     4     1    19 1   
     5     2     3 1   
     6     2    20 1   
     7     2    21 1   
     8     3     4 1   
     9     3    16 2   
    10     4     5 1   
    11     4    22 1   
    12     5     6 ar  
    13     5    14 ar  
    14     6     7 ar  
    15     6    23 1   
    16     7     8 ar  
    17     7    24 1   
    18     8     9 ar  
    19     8    13 ar  
    20     9    10 ar  
    21     9    25 1   
    22    10    11 ar  
    23    10    26 1   
    24    11    12 ar  
    25    11    27 1   
    26    12    13 ar  
    27    12    15 1   
    28    13    14 ar  
@<TRIPOS>SUBSTRUCTURE
     1 YBP         1 TEMP              0 ****  ****    0 ROOT
