@<TRIPOS>MOLECULE
YBP
   27    28     1     0     0
SMALL
No Charge or Current Charge


@<TRIPOS>ATOM
      1 C1         -31.8350     8.6860     5.0530 c3         1 YBP      -0.096100
      2 C2         -32.7790     9.9060     4.9490 c3         1 YBP      -0.160400
      3 C3         -34.2520     9.5030     5.0810 c          1 YBP       0.614100
      4 N1         -34.9670     9.5580     3.9090 ns         1 YBP      -0.325900
      5 C4         -36.3070     9.2700     3.6330 ca         1 YBP       0.500900
      6 C5         -37.2160     8.6480     4.5070 ca         1 YBP      -0.162000
      7 C6         -38.5290     8.4290     4.0670 ca         1 YBP      -0.046000
      8 C7         -38.8780     8.8390     2.7680 ca         1 YBP      -0.105000
      9 C8         -40.1910     8.6300     2.3030 ca         1 YBP      -0.077000
     10 C9         -40.5520     9.0320     1.0080 ca         1 YBP      -0.114000
     11 C10        -39.6020     9.6440     0.1760 ca         1 YBP      -0.088000
     12 C11        -38.2890     9.8550     0.6340 ca         1 YBP       0.133000
     13 C12        -37.9010     9.4570     1.9400 ca         1 YBP       0.316000
     14 N2         -36.6320     9.6600     2.3870 nb         1 YBP      -0.729000
     15 Cl1        -37.1390    10.6320    -0.4660 cl         1 YBP      -0.189000
     16 O1         -34.7400     9.1950     6.1600 o          1 YBP      -0.586100
     17 H1         -30.7890     9.0010     4.9580 hc         1 YBP       0.044700
     18 H2         -31.9540     8.1830     6.0210 hc         1 YBP       0.044700
     19 H3         -32.0490     7.9610     4.2580 hc         1 YBP       0.044700
     20 H4         -32.5330    10.6020     5.7590 hc         1 YBP       0.076200
     21 H5         -32.6070    10.3910     3.9800 hc         1 YBP       0.076200
     22 H6         -34.4460     9.8640     3.0990 hn         1 YBP       0.171000
     23 H7         -36.9220     8.3310     5.5010 ha         1 YBP       0.162000
     24 H8         -39.2560     7.9500     4.7200 ha         1 YBP       0.124000
     25 H9         -40.9330     8.1560     2.9430 ha         1 YBP       0.119000
     26 H10        -41.5670     8.8700     0.6500 ha         1 YBP       0.121000
     27 H11        -39.8810     9.9560    -0.8270 ha         1 YBP       0.130000
@<TRIPOS>BOND
     1     1     2 1   
     2     1    17 1   
     3     1    18 1   
     4     1    19 1   
     5     2     3 1   
     6     2    20 1   
     7     2    21 1   
     8     3     4 1   
     9     3    16 2   
    10     4     5 1   
    11     4    22 1   
    12     5     6 ar  
    13     5    14 ar  
    14     6     7 ar  
    15     6    23 1   
    16     7     8 ar  
    17     7    24 1   
    18     8     9 ar  
    19     8    13 ar  
    20     9    10 ar  
    21     9    25 1   
    22    10    11 ar  
    23    10    26 1   
    24    11    12 ar  
    25    11    27 1   
    26    12    13 ar  
    27    12    15 1   
    28    13    14 ar  
@<TRIPOS>SUBSTRUCTURE
     1 YBP         1 TEMP              0 ****  ****    0 ROOT
