@<TRIPOS>MOLECULE
YBS
   51    54     1     0     0
SMALL
No Charge or Current Charge


@<TRIPOS>ATOM
      1 C4          20.1680     3.3470   -19.8190 ca         1 YBS      -0.078300
      2 C5          21.2880     2.5180   -19.6110 ca         1 YBS      -0.108000
      3 C6          22.4800     2.7410   -20.3220 ca         1 YBS      -0.108500
      4 C7          22.5630     3.8010   -21.2400 ca         1 YBS      -0.108000
      5 C8          21.4550     4.6400   -21.4430 ca         1 YBS      -0.108500
      6 C10         17.3550     2.6940   -21.0890 c6         1 YBS      -0.109400
      7 N12         16.9930     0.3710   -21.9410 n          1 YBS      -0.393800
      8 C13         17.4260    -0.2210   -20.6460 c6         1 YBS       0.101000
      9 C15         17.4340    -0.1090   -23.1960 c          1 YBS       0.620700
     10 C17         17.9130    -1.5230   -23.3010 ca         1 YBS      -0.177600
     11 C20         18.6470    -4.1590   -23.4030 ca         1 YBS       0.350900
     12 C22         17.0370    -2.5550   -22.8670 cp         1 YBS       0.420500
     13 C24         14.7000    -1.5200   -23.0750 ca         1 YBS      -0.135500
     14 C28         15.1460    -2.9670   -21.2080 ca         1 YBS      -0.135500
     15 O1          16.7130     2.0700   -18.8340 oh         1 YBS      -0.659000
     16 C2          17.8380     2.1460   -19.7160 c6         1 YBS       0.189000
     17 C3          18.8740     3.1080   -19.0410 c3         1 YBS      -0.058100
     18 C9          20.2630     4.4160   -20.7320 ca         1 YBS      -0.108000
     19 C11         16.3800     1.7150   -21.7870 c6         1 YBS       0.101000
     20 C14         18.4190     0.7160   -19.9150 c6         1 YBS      -0.109400
     21 O16         17.4060     0.6000   -24.1940 o          1 YBS      -0.598100
     22 C18         19.1640    -1.8400   -23.8570 ca         1 YBS      -0.040000
     23 C19         19.5330    -3.1920   -23.9050 ca         1 YBS      -0.166000
     24 N21         17.4350    -3.8480   -22.8890 nb         1 YBS      -0.666000
     25 C23         15.6310    -2.3370   -22.3820 cp         1 YBS      -0.113500
     26 C25         13.3960    -1.3530   -22.5750 ca         1 YBS       0.327900
     27 N26         12.9570    -1.9510   -21.4440 nb         1 YBS      -0.658000
     28 C27         13.8260    -2.7470   -20.7790 ca         1 YBS       0.327900
     29 H1          21.2350     1.6960   -18.9010 ha         1 YBS       0.110000
     30 H2          23.3390     2.0940   -20.1600 ha         1 YBS       0.113500
     31 H3          23.4860     3.9750   -21.7900 ha         1 YBS       0.114000
     32 H4          21.5190     5.4650   -22.1500 ha         1 YBS       0.113500
     33 H5          18.2130     2.8550   -21.7540 hc         1 YBS       0.058950
     34 H6          16.8700     3.6710   -20.9610 hc         1 YBS       0.058950
     35 H7          16.5400    -0.3880   -20.0160 h1         1 YBS       0.064200
     36 H8          17.9070    -1.1970   -20.7880 h1         1 YBS       0.064200
     37 H9          18.9150    -5.2150   -23.4130 h4         1 YBS       0.024100
     38 H11         15.7910    -3.6180   -20.6250 ha         1 YBS       0.135000
     39 H12         17.0540     1.7730   -17.9640 ho         1 YBS       0.441000
     40 H13         19.1290     2.7230   -18.0450 hc         1 YBS       0.054200
     41 H14         18.3920     4.0760   -18.8520 hc         1 YBS       0.054200
     42 H15         19.4110     5.0730   -20.8950 ha         1 YBS       0.110000
     43 H16         16.0820     2.1240   -22.7630 h1         1 YBS       0.064200
     44 H17         15.4610     1.6200   -21.1900 h1         1 YBS       0.064200
     45 H18         18.7010     0.2770   -18.9480 hc         1 YBS       0.058950
     46 H19         19.3400     0.7670   -20.5110 hc         1 YBS       0.058950
     47 H20         19.8320    -1.0630   -24.2240 ha         1 YBS       0.133000
     48 H21         20.4930    -3.4940   -24.3140 ha         1 YBS       0.130000
     49 H22         12.6790    -0.7250   -23.1010 h4         1 YBS       0.020600
     50 H23         13.4510    -3.2230   -19.8730 h4         1 YBS       0.020600
     51 H10         14.9750    -1.0230   -24.0010 ha         1 YBS       0.135000
@<TRIPOS>BOND
     1     1     2 ar  
     2     1    17 1   
     3     1    18 ar  
     4     2     3 ar  
     5     2    29 1   
     6     3     4 ar  
     7     3    30 1   
     8     4     5 ar  
     9     4    31 1   
    10     5    18 ar  
    11     5    32 1   
    12     6    16 1   
    13     6    19 1   
    14     6    33 1   
    15     6    34 1   
    16     7     8 1   
    17     7     9 1   
    18     7    19 1   
    19     8    20 1   
    20     8    35 1   
    21     8    36 1   
    22     9    10 1   
    23     9    21 2   
    24    10    12 ar  
    25    10    22 ar  
    26    11    23 ar  
    27    11    24 ar  
    28    11    37 1   
    29    12    24 ar  
    30    12    25 1   
    31    13    25 ar  
    32    13    26 ar  
    33    13    51 1   
    34    14    25 ar  
    35    14    28 ar  
    36    14    38 1   
    37    15    16 1   
    38    15    39 1   
    39    16    17 1   
    40    16    20 1   
    41    17    40 1   
    42    17    41 1   
    43    18    42 1   
    44    19    43 1   
    45    19    44 1   
    46    20    45 1   
    47    20    46 1   
    48    22    23 ar  
    49    22    47 1   
    50    23    48 1   
    51    26    27 ar  
    52    26    49 1   
    53    27    28 ar  
    54    28    50 1   
@<TRIPOS>SUBSTRUCTURE
     1 YBS         1 TEMP              0 ****  ****    0 ROOT
