@<TRIPOS>MOLECULE
YBS
   51    54     1     0     0
SMALL
abcg2


@<TRIPOS>ATOM
      1 C4          20.2090     3.2760   -19.8580 ca         1 YBS      -0.078300
      2 C5          21.2820     2.4170   -19.6230 ca         1 YBS      -0.108000
      3 C6          22.4750     2.5530   -20.3190 ca         1 YBS      -0.108500
      4 C7          22.6200     3.5590   -21.2650 ca         1 YBS      -0.108000
      5 C8          21.5640     4.4290   -21.5020 ca         1 YBS      -0.108500
      6 C10         17.3890     2.7690   -21.1130 c6         1 YBS      -0.109400
      7 N12         16.9510     0.5020   -21.9270 n          1 YBS      -0.393800
      8 C13         17.3280    -0.0920   -20.6560 c6         1 YBS       0.101000
      9 C15         17.2660     0.0090   -23.1360 c          1 YBS       0.620700
     10 C17         17.7820    -1.3980   -23.1950 ca         1 YBS      -0.177600
     11 C20         18.7390    -3.9370   -23.3640 ca         1 YBS       0.350900
     12 C22         17.0160    -2.5190   -22.8610 cp         1 YBS       0.420500
     13 C24         14.6790    -1.5960   -22.9990 ca         1 YBS      -0.135500
     14 C28         15.2070    -3.1460   -21.2730 ca         1 YBS      -0.135500
     15 O1          16.6960     2.2270   -18.9330 oh         1 YBS      -0.659000
     16 C2          17.8460     2.2210   -19.7630 c6         1 YBS       0.189000
     17 C3          18.9150     3.1220   -19.1080 c3         1 YBS      -0.058100
     18 C9          20.3740     4.2900   -20.8010 ca         1 YBS      -0.108000
     19 C11         16.3940     1.8390   -21.7970 c6         1 YBS       0.101000
     20 C14         18.3530     0.7890   -19.9510 c6         1 YBS      -0.109400
     21 O16         17.1490     0.6330   -24.1830 o          1 YBS      -0.598100
     22 C18         19.0720    -1.6060   -23.6700 ca         1 YBS      -0.040000
     23 C19         19.5660    -2.8940   -23.7530 ca         1 YBS      -0.166000
     24 N21         17.4990    -3.7560   -22.9350 nb         1 YBS      -0.666000
     25 C23         15.6220    -2.4050   -22.3750 cp         1 YBS      -0.113500
     26 C25         13.3900    -1.5540   -22.4890 ca         1 YBS       0.327900
     27 N26         12.9960    -2.2450   -21.4260 nb         1 YBS      -0.658000
     28 C27         13.8960    -3.0250   -20.8380 ca         1 YBS       0.327900
     29 H1          21.1830     1.6340   -18.8800 ha         1 YBS       0.110000
     30 H2          23.2950     1.8740   -20.1180 ha         1 YBS       0.113500
     31 H3          23.5500     3.6680   -21.8080 ha         1 YBS       0.114000
     32 H4          21.6690     5.2240   -22.2310 ha         1 YBS       0.113500
     33 H5          18.2530     2.8990   -21.7680 hc         1 YBS       0.058950
     34 H6          16.9350     3.7560   -20.9830 hc         1 YBS       0.058950
     35 H7          16.4310    -0.2110   -20.0430 h1         1 YBS       0.064200
     36 H8          17.7480    -1.0840   -20.8040 h1         1 YBS       0.064200
     37 H9          19.0910    -4.9620   -23.4020 h4         1 YBS       0.024100
     38 H11         15.8930    -3.7980   -20.7500 ha         1 YBS       0.135000
     39 H12         16.9200     1.8020   -18.0970 ho         1 YBS       0.441000
     40 H13         19.1250     2.7140   -18.1140 hc         1 YBS       0.054200
     41 H14         18.4650     4.1070   -18.9550 hc         1 YBS       0.054200
     42 H15         19.5620     4.9830   -20.9880 ha         1 YBS       0.110000
     43 H16         16.1320     2.2180   -22.7800 h1         1 YBS       0.064200
     44 H17         15.4700     1.7670   -21.2170 h1         1 YBS       0.064200
     45 H18         18.6010     0.3460   -18.9810 hc         1 YBS       0.058950
     46 H19         19.2740     0.7950   -20.5400 hc         1 YBS       0.058950
     47 H20         19.6910    -0.7630   -23.9500 ha         1 YBS       0.133000
     48 H21         20.5690    -3.0900   -24.1040 ha         1 YBS       0.130000
     49 H22         12.6430    -0.9320   -22.9680 h4         1 YBS       0.020600
     50 H23         13.5610    -3.5870   -19.9740 h4         1 YBS       0.020600
     51 H10         14.9200    -1.0200   -23.8820 ha         1 YBS       0.135000
@<TRIPOS>BOND
     1     1     2 ar  
     2     1    17 1   
     3     1    18 ar  
     4     2     3 ar  
     5     2    29 1   
     6     3     4 ar  
     7     3    30 1   
     8     4     5 ar  
     9     4    31 1   
    10     5    18 ar  
    11     5    32 1   
    12     6    16 1   
    13     6    19 1   
    14     6    33 1   
    15     6    34 1   
    16     7     8 1   
    17     7     9 1   
    18     7    19 1   
    19     8    20 1   
    20     8    35 1   
    21     8    36 1   
    22     9    10 1   
    23     9    21 2   
    24    10    12 ar  
    25    10    22 ar  
    26    11    23 ar  
    27    11    24 ar  
    28    11    37 1   
    29    12    24 ar  
    30    12    25 1   
    31    13    25 ar  
    32    13    26 ar  
    33    13    51 1   
    34    14    25 ar  
    35    14    28 ar  
    36    14    38 1   
    37    15    16 1   
    38    15    39 1   
    39    16    17 1   
    40    16    20 1   
    41    17    40 1   
    42    17    41 1   
    43    18    42 1   
    44    19    43 1   
    45    19    44 1   
    46    20    45 1   
    47    20    46 1   
    48    22    23 ar  
    49    22    47 1   
    50    23    48 1   
    51    26    27 ar  
    52    26    49 1   
    53    27    28 ar  
    54    28    50 1   
@<TRIPOS>SUBSTRUCTURE
     1 YBS         1 TEMP              0 ****  ****    0 ROOT
