@<TRIPOS>MOLECULE
YBU
   20    21     1     0     0
SMALL
abcg2


@<TRIPOS>ATOM
      1 C1         -32.5970    10.4050     4.2850 ce         1 YBU       0.376200
      2 C2         -33.9250    10.1260     4.8290 cc         1 YBU       0.359700
      3 N1         -34.3300    10.0070     6.0540 nd         1 YBU      -0.299000
      4 N2         -35.6860     9.7390     5.9990 nd         1 YBU      -0.365000
      5 C3         -36.0170     9.7130     4.7390 cc         1 YBU       0.496500
      6 C4         -37.3190     9.4730     4.1410 ca         1 YBU      -0.150500
      7 C5         -37.4780     9.4920     2.7510 ca         1 YBU      -0.064500
      8 C6         -38.7290     9.2630     2.1960 ca         1 YBU      -0.118500
      9 C7         -39.8250     9.0150     3.0180 ca         1 YBU      -0.083000
     10 C8         -39.6670     8.9960     4.4020 ca         1 YBU      -0.118500
     11 C9         -38.4220     9.2230     4.9660 ca         1 YBU      -0.064500
     12 O1         -34.9430     9.9510     3.9460 os         1 YBU      -0.291000
     13 N3         -31.6020    10.5840     5.0510 n2         1 YBU      -0.684100
     14 H1         -32.5550    10.4410     3.1950 h4         1 YBU      -0.010200
     15 H2         -36.6280     9.6840     2.1110 ha         1 YBU       0.132500
     16 H3         -38.8490     9.2790     1.1210 ha         1 YBU       0.121000
     17 H4         -40.7990     8.8380     2.5820 ha         1 YBU       0.118000
     18 H5         -40.5190     8.8030     5.0420 ha         1 YBU       0.121000
     19 H6         -38.2950     9.2090     6.0400 ha         1 YBU       0.132500
     20 H7         -30.7600    10.7650     4.5050 hn         1 YBU       0.393400
@<TRIPOS>BOND
     1     1     2 1   
     2     1    13 2   
     3     1    14 1   
     4     2     3 2   
     5     2    12 1   
     6     3     4 1   
     7     4     5 2   
     8     5     6 1   
     9     5    12 1   
    10     6     7 ar  
    11     6    11 ar  
    12     7     8 ar  
    13     7    15 1   
    14     8     9 ar  
    15     8    16 1   
    16     9    10 ar  
    17     9    17 1   
    18    10    11 ar  
    19    10    18 1   
    20    11    19 1   
    21    13    20 1   
@<TRIPOS>SUBSTRUCTURE
     1 YBU         1 TEMP              0 ****  ****    0 ROOT
