@<TRIPOS>MOLECULE
YBU
   20    21     1     0     0
SMALL
No Charge or Current Charge


@<TRIPOS>ATOM
      1 C1         -32.5490    10.4160     4.3180 ce         1 YBU       0.376200
      2 C2         -33.9170    10.1270     4.7900 cc         1 YBU       0.359700
      3 N1         -34.3210    10.0030     6.0500 nd         1 YBU      -0.299000
      4 N2         -35.6660     9.7370     6.0010 nd         1 YBU      -0.365000
      5 C3         -35.9910     9.7180     4.7180 cc         1 YBU       0.496500
      6 C4         -37.3170     9.4740     4.1340 ca         1 YBU      -0.150500
      7 C5         -37.5050     9.4860     2.7330 ca         1 YBU      -0.064500
      8 C6         -38.7770     9.2520     2.1810 ca         1 YBU      -0.118500
      9 C7         -39.8760     9.0050     3.0190 ca         1 YBU      -0.083000
     10 C8         -39.7010     8.9910     4.4120 ca         1 YBU      -0.118500
     11 C9         -38.4310     9.2240     4.9680 ca         1 YBU      -0.064500
     12 O1         -34.9340     9.9560     3.9010 os         1 YBU      -0.291000
     13 N3         -31.5300    10.5910     5.1070 n2         1 YBU      -0.684100
     14 H1         -32.4350    10.4760     3.2330 h4         1 YBU      -0.010200
     15 H2         -36.6680     9.6760     2.0630 ha         1 YBU       0.132500
     16 H3         -38.9100     9.2640     1.1010 ha         1 YBU       0.121000
     17 H4         -40.8590     8.8240     2.5900 ha         1 YBU       0.118000
     18 H5         -40.5520     8.7990     5.0630 ha         1 YBU       0.121000
     19 H6         -38.3180     9.2090     6.0500 ha         1 YBU       0.132500
     20 H7         -30.6870    10.7780     4.5410 hn         1 YBU       0.393400
@<TRIPOS>BOND
     1     1     2 1   
     2     1    13 2   
     3     1    14 1   
     4     2     3 2   
     5     2    12 1   
     6     3     4 1   
     7     4     5 2   
     8     5     6 1   
     9     5    12 1   
    10     6     7 ar  
    11     6    11 ar  
    12     7     8 ar  
    13     7    15 1   
    14     8     9 ar  
    15     8    16 1   
    16     9    10 ar  
    17     9    17 1   
    18    10    11 ar  
    19    10    18 1   
    20    11    19 1   
    21    13    20 1   
@<TRIPOS>SUBSTRUCTURE
     1 YBU         1 TEMP              0 ****  ****    0 ROOT
