@<TRIPOS>MOLECULE
YBV
   25    26     1     0     0
SMALL
abcg2


@<TRIPOS>ATOM
      1 C11         -7.5300    12.4540   -28.0030 cc         1 YBV       0.304500
      2 C14         -4.0440    12.1360   -28.7380 c3         1 YBV       0.100300
      3 C02         -5.9830    11.2840   -29.9780 c          1 YBV       0.565200
      4 C03         -7.4080    11.1970   -30.0230 cd         1 YBV      -0.138200
      5 C05         -8.2180    11.7740   -29.0620 cc         1 YBV       0.150400
      6 C07        -10.4430    12.2440   -28.0800 cy         1 YBV       0.176500
      7 C08        -11.9490    12.1370   -28.3720 cy         1 YBV       0.100300
      8 C10        -10.7300    11.4130   -26.8040 cy         1 YBV       0.100300
      9 N06         -9.5650    11.7210   -29.0980 nu         1 YBV      -0.802200
     10 N09        -12.2030    11.6080   -26.9940 n6         1 YBV      -0.801400
     11 N12         -6.2370    12.5500   -27.9300 nd         1 YBV      -0.390300
     12 N13         -5.4900    11.9930   -28.8780 n          1 YBV      -0.140800
     13 O01         -5.1970    10.8040   -30.8030 o          1 YBV      -0.536000
     14 CL04        -8.1120    10.3360   -31.3530 cl         1 YBV      -0.162000
     15 H1          -8.0780    12.9210   -27.1970 h4         1 YBV       0.044800
     16 H2          -3.8620    12.7020   -27.8300 h1         1 YBV       0.059367
     17 H3          -3.5770    11.1540   -28.6730 h1         1 YBV       0.059367
     18 H4          -3.6350    12.6630   -29.5990 h1         1 YBV       0.059367
     19 H6         -10.1570    13.2670   -27.8340 h1         1 YBV       0.068700
     20 H8         -12.1750    11.3810   -29.1280 h1         1 YBV       0.068700
     21 H9         -10.4510    10.3630   -26.9200 h1         1 YBV       0.068700
     22 H10        -10.3280    11.7950   -25.8660 h1         1 YBV       0.068700
     23 H11         -9.9780    11.1140   -29.7910 hn         1 YBV       0.508000
     24 H12        -12.5200    12.3660   -26.3990 hn         1 YBV       0.399000
     25 H7         -12.4690    13.0610   -28.6230 h1         1 YBV       0.068700
@<TRIPOS>BOND
     1     1     5 1   
     2     1    11 2   
     3     1    15 1   
     4     2    12 1   
     5     2    16 1   
     6     2    17 1   
     7     2    18 1   
     8     3     4 1   
     9     3    12 1   
    10     3    13 2   
    11     4     5 2   
    12     4    14 1   
    13     5     9 1   
    14     6     7 1   
    15     6     8 1   
    16     6     9 1   
    17     6    19 1   
    18     7    10 1   
    19     7    20 1   
    20     7    25 1   
    21     8    10 1   
    22     8    21 1   
    23     8    22 1   
    24     9    23 1   
    25    10    24 1   
    26    11    12 1   
@<TRIPOS>SUBSTRUCTURE
     1 YBV         1 TEMP              0 ****  ****    0 ROOT
