@<TRIPOS>MOLECULE
YBV
   25    26     1     0     0
SMALL
No Charge or Current Charge


@<TRIPOS>ATOM
      1 C11         -7.5410    12.4290   -27.9720 cc         1 YBV       0.304500
      2 C14         -4.0100    12.1440   -28.6540 c3         1 YBV       0.100300
      3 C02         -5.9430    11.3650   -30.0140 c          1 YBV       0.565200
      4 C03         -7.4220    11.2820   -30.1020 cd         1 YBV      -0.138200
      5 C05         -8.2090    11.8030   -29.1000 cc         1 YBV       0.150400
      6 C07        -10.5440    12.2110   -28.1330 cy         1 YBV       0.176500
      7 C08        -12.0680    11.8940   -28.3200 cy         1 YBV       0.100300
      8 C10        -10.7090    11.3780   -26.8140 cy         1 YBV       0.100300
      9 N06         -9.6000    11.7420   -29.1490 nu         1 YBV      -0.802200
     10 N09        -12.1390    11.8490   -26.8170 n6         1 YBV      -0.801400
     11 N12         -6.2250    12.5570   -27.7930 nd         1 YBV      -0.390300
     12 N13         -5.4720    12.0100   -28.8380 n          1 YBV      -0.140800
     13 O01         -5.1880    10.9190   -30.8730 o          1 YBV      -0.536000
     14 Cl04        -8.0900    10.5010   -31.5180 cl         1 YBV      -0.162000
     15 H1          -8.1050    12.8590   -27.1560 h4         1 YBV       0.044800
     16 H2          -3.7810    12.6570   -27.7110 h1         1 YBV       0.059367
     17 H3          -3.5480    11.1490   -28.6360 h1         1 YBV       0.059367
     18 H4          -3.5860    12.7230   -29.4840 h1         1 YBV       0.059367
     19 H6         -10.3590    13.2780   -27.9480 h1         1 YBV       0.068700
     20 H8         -12.2510    10.9350   -28.8240 h1         1 YBV       0.068700
     21 H9         -10.5700    10.3000   -26.9700 h1         1 YBV       0.068700
     22 H10        -10.0810    11.7120   -25.9790 h1         1 YBV       0.068700
     23 H11         -9.9770    11.2930   -29.9900 hn         1 YBV       0.508000
     24 H12        -12.2790    12.7620   -26.3640 hn         1 YBV       0.399000
     25 H7         -12.6420    12.6850   -28.8180 h1         1 YBV       0.068700
@<TRIPOS>BOND
     1     1     5 1   
     2     1    11 2   
     3     1    15 1   
     4     2    12 1   
     5     2    16 1   
     6     2    17 1   
     7     2    18 1   
     8     3     4 1   
     9     3    12 1   
    10     3    13 2   
    11     4     5 2   
    12     4    14 1   
    13     5     9 1   
    14     6     7 1   
    15     6     8 1   
    16     6     9 1   
    17     6    19 1   
    18     7    10 1   
    19     7    20 1   
    20     7    25 1   
    21     8    10 1   
    22     8    21 1   
    23     8    22 1   
    24     9    23 1   
    25    10    24 1   
    26    11    12 1   
@<TRIPOS>SUBSTRUCTURE
     1 YBV         1 TEMP              0 ****  ****    0 ROOT
