@<TRIPOS>MOLECULE
YBY
   40    40     1     0     0
SMALL
abcg2


@<TRIPOS>ATOM
      1 I18         25.6730    48.0760    45.3370 i          1 YBY      -0.405000
      2 C17         24.3230    46.5180    44.8480 ca         1 YBY       0.138000
      3 C16         23.2370    46.7920    44.0230 ca         1 YBY      -0.028000
      4 C19         24.5320    45.2360    45.3610 ca         1 YBY       0.116100
      5 O20         25.5690    44.8940    46.1700 oh         1 YBY      -0.559100
      6 C21         23.6220    44.2340    45.0200 ca         1 YBY      -0.153000
      7 C22         22.5410    44.5110    44.2010 ca         1 YBY      -0.055000
      8 C15         22.3260    45.7940    43.6890 ca         1 YBY      -0.034300
      9 C14         21.1220    46.1020    42.8450 c3         1 YBY      -0.062100
     10 C13         19.8270    46.3430    43.6630 c3         1 YBY       0.007700
     11 C23         19.9940    47.5710    44.5900 c          1 YBY       0.707000
     12 O25         19.7770    48.6950    44.0670 o          1 YBY      -0.742000
     13 O24         20.3570    47.3510    45.7690 o          1 YBY      -0.742000
     14 N12         18.6980    46.5750    42.7850 ns         1 YBY      -0.509900
     15 C11         18.0820    45.5890    42.0700 c          1 YBY       0.637100
     16 O26         18.3200    44.3850    42.2610 o          1 YBY      -0.727100
     17 N10         17.1650    46.0230    41.1670 ns         1 YBY      -0.488900
     18 C6          16.4590    45.1480    40.2500 c3         1 YBY      -0.013300
     19 C7          16.0450    45.9580    38.9920 c          1 YBY       0.711000
     20 O9          16.2100    47.2050    39.0220 o          1 YBY      -0.756500
     21 O8          15.5650    45.2910    38.0450 o          1 YBY      -0.756500
     22 C5          15.2420    44.4750    40.9080 c3         1 YBY      -0.037400
     23 C4          14.1750    45.4610    41.3640 c3         1 YBY      -0.187400
     24 C2          12.9880    44.8720    42.1500 c          1 YBY       0.708000
     25 O1          12.9240    43.6250    42.3020 o          1 YBY      -0.782000
     26 O3          12.1500    45.7070    42.5870 o          1 YBY      -0.782000
     27 H16         23.0910    47.7950    43.6450 ha         1 YBY       0.139000
     28 HO20        26.1300    45.6670    46.3420 ho         1 YBY       0.454000
     29 H21         23.7840    43.2380    45.4120 ha         1 YBY       0.106000
     30 H22         21.8480    43.7160    43.9530 ha         1 YBY       0.131000
     31 H14         21.3050    46.9930    42.2410 hc         1 YBY       0.048700
     32 H14A        20.9250    45.2730    42.1630 hc         1 YBY       0.048700
     33 H13         19.6280    45.4640    44.2740 h1         1 YBY       0.062700
     34 HN12        18.5510    47.5430    42.5400 hn         1 YBY       0.323500
     35 HN10        17.1320    46.9980    40.9020 hn         1 YBY       0.328500
     36 H6          17.1390    44.3610    39.9140 h1         1 YBY       0.023700
     37 H5          14.8170    43.7620    40.2000 hc         1 YBY       0.033700
     38 H5A         15.5990    43.8980    41.7630 hc         1 YBY       0.033700
     39 H4          14.6250    46.2360    41.9910 hc         1 YBY       0.031200
     40 H4A         13.7540    45.9890    40.5020 hc         1 YBY       0.031200
@<TRIPOS>BOND
     1     1     2 1   
     2     2     3 ar  
     3     2     4 ar  
     4     3     8 ar  
     5     3    27 1   
     6     4     5 1   
     7     4     6 ar  
     8     5    28 1   
     9     6     7 ar  
    10     6    29 1   
    11     7     8 ar  
    12     7    30 1   
    13     8     9 1   
    14     9    10 1   
    15     9    31 1   
    16     9    32 1   
    17    10    11 1   
    18    10    14 1   
    19    10    33 1   
    20    11    12 1   
    21    11    13 1   
    22    14    15 1   
    23    14    34 1   
    24    15    16 2   
    25    15    17 1   
    26    17    18 1   
    27    17    35 1   
    28    18    19 1   
    29    18    22 1   
    30    18    36 1   
    31    19    20 1   
    32    19    21 1   
    33    22    23 1   
    34    22    37 1   
    35    22    38 1   
    36    23    24 1   
    37    23    39 1   
    38    23    40 1   
    39    24    25 1   
    40    24    26 1   
@<TRIPOS>SUBSTRUCTURE
     1 YBY         1 TEMP              0 ****  ****    0 ROOT
