@<TRIPOS>MOLECULE
YBY
   40    40     1     0     0
SMALL
No Charge or Current Charge


@<TRIPOS>ATOM
      1 I18         25.8040    47.9800    45.5770 i          1 YBY      -0.405000
      2 C17         24.3330    46.4740    45.0190 ca         1 YBY       0.138000
      3 C16         23.3240    46.7970    44.0960 ca         1 YBY      -0.028000
      4 C19         24.3920    45.1810    45.5800 ca         1 YBY       0.116100
      5 O20         25.3710    44.8520    46.4790 oh         1 YBY      -0.559100
      6 C21         23.4380    44.2180    45.2140 ca         1 YBY      -0.153000
      7 C22         22.4270    44.5420    44.2920 ca         1 YBY      -0.055000
      8 C15         22.3650    45.8320    43.7270 ca         1 YBY      -0.034300
      9 C14         21.2650    46.1780    42.7330 c3         1 YBY      -0.062100
     10 C13         19.9140    46.4820    43.4280 c3         1 YBY       0.007700
     11 C23         19.9990    47.7490    44.3410 c          1 YBY       0.707000
     12 O25         20.0840    48.8490    43.8100 o          1 YBY      -0.742000
     13 O24         19.8810    47.6020    45.5500 o          1 YBY      -0.742000
     14 N12         18.8180    46.6260    42.4390 ns         1 YBY      -0.509900
     15 C11         18.1770    45.5880    41.8170 c          1 YBY       0.637100
     16 O26         18.4280    44.4140    42.0340 o          1 YBY      -0.727100
     17 N10         17.2320    46.0150    40.9240 ns         1 YBY      -0.488900
     18 C6          16.3540    45.1380    40.1110 c3         1 YBY      -0.013300
     19 C7          15.7900    45.9020    38.8620 c          1 YBY       0.711000
     20 O9          15.7190    47.1250    38.8950 o          1 YBY      -0.756500
     21 O8          15.5540    45.2550    37.8490 o          1 YBY      -0.756500
     22 C5          15.2250    44.4790    40.9520 c3         1 YBY      -0.037400
     23 C4          14.2610    45.4700    41.6570 c3         1 YBY      -0.187400
     24 C2          13.1720    44.6970    42.4200 c          1 YBY       0.708000
     25 O1          12.1480    44.3980    41.8250 o          1 YBY      -0.782000
     26 O3          13.3910    44.3740    43.5780 o          1 YBY      -0.782000
     27 H16         23.2860    47.7970    43.6720 ha         1 YBY       0.139000
     28 HO20        25.9390    45.6440    46.6120 ho         1 YBY       0.454000
     29 H21         23.4800    43.2210    45.6450 ha         1 YBY       0.106000
     30 H22         21.6900    43.7910    44.0140 ha         1 YBY       0.131000
     31 H14         21.5560    47.0370    42.1160 hc         1 YBY       0.048700
     32 H14A        21.1320    45.3410    42.0380 hc         1 YBY       0.048700
     33 H13         19.6640    45.6340    44.0800 h1         1 YBY       0.062700
     34 HN12        18.5300    47.5640    42.1920 hn         1 YBY       0.323500
     35 HN10        17.1220    47.0140    40.8070 hn         1 YBY       0.328500
     36 H6          16.9840    44.3300    39.7170 h1         1 YBY       0.023700
     37 H5          14.6430    43.8200    40.2970 hc         1 YBY       0.033700
     38 H5A         15.6800    43.8290    41.7100 hc         1 YBY       0.033700
     39 H4          14.8740    46.0500    42.3580 hc         1 YBY       0.031200
     40 H4A         13.8070    46.0730    40.8620 hc         1 YBY       0.031200
@<TRIPOS>BOND
     1     1     2 1   
     2     2     3 ar  
     3     2     4 ar  
     4     3     8 ar  
     5     3    27 1   
     6     4     5 1   
     7     4     6 ar  
     8     5    28 1   
     9     6     7 ar  
    10     6    29 1   
    11     7     8 ar  
    12     7    30 1   
    13     8     9 1   
    14     9    10 1   
    15     9    31 1   
    16     9    32 1   
    17    10    11 1   
    18    10    14 1   
    19    10    33 1   
    20    11    12 1   
    21    11    13 1   
    22    14    15 1   
    23    14    34 1   
    24    15    16 2   
    25    15    17 1   
    26    17    18 1   
    27    17    35 1   
    28    18    19 1   
    29    18    22 1   
    30    18    36 1   
    31    19    20 1   
    32    19    21 1   
    33    22    23 1   
    34    22    37 1   
    35    22    38 1   
    36    23    24 1   
    37    23    39 1   
    38    23    40 1   
    39    24    25 1   
    40    24    26 1   
@<TRIPOS>SUBSTRUCTURE
     1 YBY         1 TEMP              0 ****  ****    0 ROOT
