@<TRIPOS>MOLECULE
YBZ
   20    21     1     0     0
SMALL
abcg2


@<TRIPOS>ATOM
      1 C1         -32.2750    10.2800     4.4940 ce         1 YBZ       0.363200
      2 C2         -33.7130    10.0340     4.6640 cc         1 YBZ       0.337100
      3 N1         -34.3300     9.8940     5.8070 nd         1 YBZ      -0.265000
      4 N2         -35.6540     9.6720     5.6740 nd         1 YBZ      -0.333000
      5 C3         -36.0630     9.6400     4.4250 cc         1 YBZ       0.475900
      6 C4         -37.4530     9.4170     4.0330 ca         1 YBZ      -0.148500
      7 C5         -37.8050     9.2170     2.6940 ca         1 YBZ      -0.074500
      8 C6         -39.1300     9.0060     2.3410 ca         1 YBZ      -0.115500
      9 C7         -40.1200     8.9910     3.3190 ca         1 YBZ      -0.089000
     10 C8         -39.7770     9.1880     4.6540 ca         1 YBZ      -0.115500
     11 C9         -38.4550     9.4000     5.0130 ca         1 YBZ      -0.074500
     12 S1         -34.7710     9.8990     3.3000 ss         1 YBZ      -0.250800
     13 N3         -31.4920    10.3690     5.4900 n2         1 YBZ      -0.682100
     14 H1         -31.9440    10.3770     3.4580 h4         1 YBZ      -0.024200
     15 H2         -37.0440     9.2180     1.9240 ha         1 YBZ       0.127000
     16 H3         -39.3890     8.8510     1.3020 ha         1 YBZ       0.119000
     17 H4         -41.1530     8.8260     3.0420 ha         1 YBZ       0.117000
     18 H5         -40.5440     9.1790     5.4180 ha         1 YBZ       0.119000
     19 H6         -38.1880     9.5590     6.0480 ha         1 YBZ       0.127000
     20 H7         -30.5380    10.5400     5.1750 hn         1 YBZ       0.384400
@<TRIPOS>BOND
     1     1     2 1   
     2     1    13 2   
     3     1    14 1   
     4     2     3 2   
     5     2    12 1   
     6     3     4 1   
     7     4     5 2   
     8     5     6 1   
     9     5    12 1   
    10     6     7 ar  
    11     6    11 ar  
    12     7     8 ar  
    13     7    15 1   
    14     8     9 ar  
    15     8    16 1   
    16     9    10 ar  
    17     9    17 1   
    18    10    11 ar  
    19    10    18 1   
    20    11    19 1   
    21    13    20 1   
@<TRIPOS>SUBSTRUCTURE
     1 YBZ         1 TEMP              0 ****  ****    0 ROOT
