@<TRIPOS>MOLECULE
YBZ
   20    21     1     0     0
SMALL
No Charge or Current Charge


@<TRIPOS>ATOM
      1 C1         -32.2530    10.2350     4.4930 ce         1 YBZ       0.363200
      2 C2         -33.7020    10.0360     4.6800 cc         1 YBZ       0.337100
      3 N1         -34.3190    10.0420     5.8570 nd         1 YBZ      -0.265000
      4 N2         -35.6800     9.8300     5.7320 nd         1 YBZ      -0.333000
      5 C3         -36.0550     9.6710     4.4670 cc         1 YBZ       0.475900
      6 C4         -37.4520     9.4320     4.0590 ca         1 YBZ      -0.148500
      7 C5         -37.8010     9.2680     2.6970 ca         1 YBZ      -0.074500
      8 C6         -39.1370     9.0400     2.3200 ca         1 YBZ      -0.115500
      9 C7         -40.1440     8.9720     3.2940 ca         1 YBZ      -0.089000
     10 C8         -39.8150     9.1310     4.6480 ca         1 YBZ      -0.115500
     11 C9         -38.4810     9.3600     5.0290 ca         1 YBZ      -0.074500
     12 S1         -34.7500     9.7690     3.3140 ss         1 YBZ      -0.250800
     13 N3         -31.4140    10.4380     5.4660 n2         1 YBZ      -0.682100
     14 H1         -31.9070    10.2010     3.4580 h4         1 YBZ      -0.024200
     15 H2         -37.0470     9.3150     1.9150 ha         1 YBZ       0.127000
     16 H3         -39.3900     8.9160     1.2690 ha         1 YBZ       0.119000
     17 H4         -41.1770     8.7950     3.0000 ha         1 YBZ       0.117000
     18 H5         -40.5940     9.0790     5.4060 ha         1 YBZ       0.119000
     19 H6         -38.2560     9.4800     6.0870 ha         1 YBZ       0.127000
     20 H7         -30.4630    10.5470     5.0820 hn         1 YBZ       0.384400
@<TRIPOS>BOND
     1     1     2 1   
     2     1    13 2   
     3     1    14 1   
     4     2     3 2   
     5     2    12 1   
     6     3     4 1   
     7     4     5 2   
     8     5     6 1   
     9     5    12 1   
    10     6     7 ar  
    11     6    11 ar  
    12     7     8 ar  
    13     7    15 1   
    14     8     9 ar  
    15     8    16 1   
    16     9    10 ar  
    17     9    17 1   
    18    10    11 ar  
    19    10    18 1   
    20    11    19 1   
    21    13    20 1   
@<TRIPOS>SUBSTRUCTURE
     1 YBZ         1 TEMP              0 ****  ****    0 ROOT
