@<TRIPOS>MOLECULE
YC0
   87    91     1     0     0
SMALL
abcg2


@<TRIPOS>ATOM
      1 C1         -23.9510    55.0000     4.4020 cc         1 YC0      -0.080200
      2 C10        -27.6320    56.0170     5.1770 c6         1 YC0       0.015400
      3 C11        -29.2340    57.4550     3.6290 c6         1 YC0       0.001200
      4 C12        -30.2860    56.3020     3.7610 c6         1 YC0      -0.012000
      5 C13        -30.1920    55.7510     5.1900 c6         1 YC0      -0.077400
      6 C14        -28.8440    55.1170     5.4810 c6         1 YC0      -0.062400
      7 C15        -29.3050    57.9730     2.1840 c6         1 YC0      -0.067400
      8 C16        -30.6710    58.5560     1.8430 c6         1 YC0      -0.068400
      9 C17        -31.9170    57.7320     2.2360 c6         1 YC0      -0.031000
     10 C18        -31.7130    56.8840     3.5260 c6         1 YC0      -0.028700
     11 C19        -32.3440    56.8550     1.0460 c6         1 YC0      -0.064400
     12 C2         -25.2440    55.6480     4.3170 cc         1 YC0      -0.074000
     13 C20        -33.5960    56.0370     1.3180 c6         1 YC0      -0.090400
     14 C21        -33.4970    55.1290     2.5480 c6         1 YC0       0.163400
     15 C22        -32.9090    55.9220     3.7340 c6         1 YC0      -0.080400
     16 C23        -22.7970    55.5220     3.5980 c3         1 YC0      -0.042900
     17 C24        -27.3880    56.9590     6.3950 c3         1 YC0      -0.081100
     18 C25        -29.5020    58.6600     4.5590 c3         1 YC0      -0.085100
     19 C26        -33.0310    58.7600     2.4980 c3         1 YC0      -0.090100
     20 C27        -29.8910    55.1690     2.7990 c3         1 YC0      -0.082100
     21 C28        -34.9100    54.6600     2.9140 c3         1 YC0      -0.108100
     22 C3         -26.3570    55.1890     5.1150 cc         1 YC0       0.031800
     23 C30        -31.1120    50.8080     2.9370 c3         1 YC0       0.060700
     24 C31        -31.2130    49.5580     2.0670 c3         1 YC0       0.157600
     25 C32        -29.6430    51.0700     3.2490 c          1 YC0       0.577100
     26 C33        -27.9570    50.9280     4.8800 c3         1 YC0       0.147900
     27 C4         -26.2010    54.0970     5.9040 cd         1 YC0      -0.328200
     28 C5         -24.9540    53.3840     5.9710 c          1 YC0       0.544500
     29 C6         -23.8280    53.9110     5.1940 cd         1 YC0       0.003900
     30 C7         -25.4810    56.6560     3.4310 cf         1 YC0      -0.096000
     31 C8         -26.7750    57.2130     3.2050 cf         1 YC0      -0.232000
     32 C9         -27.8510    56.8940     3.9540 c2         1 YC0      -0.031400
     33 N1         -32.6890    53.9780     2.1480 ns         1 YC0      -0.518900
     34 N2         -31.7010    51.9190     2.2440 ns         1 YC0      -0.520900
     35 O1         -24.7800    52.3630     6.6440 o          1 YC0      -0.569100
     36 O2         -22.6800    53.2240     5.3180 oh         1 YC0      -0.526100
     37 O3         -32.7420    52.7630     4.0780 o          1 YC0      -0.641100
     38 O5         -29.3250    50.7710     4.4950 os         1 YC0      -0.417100
     39 O6         -28.8640    51.4980     2.4340 o          1 YC0      -0.506000
     40 H1         -30.4190    56.5330     5.9190 hc         1 YC0       0.051200
     41 H2         -30.9450    54.9750     5.3450 hc         1 YC0       0.051200
     42 H3         -28.8150    54.8190     6.5310 hc         1 YC0       0.051200
     43 H4         -28.7570    54.1940     4.9040 hc         1 YC0       0.051200
     44 H5         -29.0400    57.1730     1.4890 hc         1 YC0       0.043200
     45 H6         -28.5730    58.7670     2.0250 hc         1 YC0       0.043200
     46 H7         -30.7440    59.5430     2.3050 hc         1 YC0       0.038200
     47 H8         -30.7080    58.7500     0.7670 hc         1 YC0       0.038200
     48 H9         -31.8270    57.5890     4.3580 hc         1 YC0       0.040700
     49 H10        -31.5210    56.2130     0.7270 hc         1 YC0       0.039700
     50 H11        -32.5390    57.5120     0.1930 hc         1 YC0       0.039700
     51 H12        -34.4410    56.7110     1.4680 hc         1 YC0       0.047200
     52 H13        -33.8570    55.4360     0.4410 hc         1 YC0       0.047200
     53 H14        -33.7350    56.5380     4.1010 hc         1 YC0       0.056200
     54 H15        -32.7130    55.2300     4.5500 hc         1 YC0       0.056200
     55 H16        -21.8690    55.0150     3.8480 hc         1 YC0       0.045700
     56 H17        -22.9640    55.3890     2.5270 hc         1 YC0       0.045700
     57 H18        -22.6440    56.5890     3.7680 hc         1 YC0       0.045700
     58 H19        -27.0980    56.3580     7.2570 hc         1 YC0       0.044367
     59 H20        -26.5940    57.6790     6.1950 hc         1 YC0       0.044367
     60 H21        -28.2860    57.5070     6.6660 hc         1 YC0       0.044367
     61 H22        -29.6010    58.3970     5.6080 hc         1 YC0       0.038700
     62 H23        -28.6800    59.3720     4.4750 hc         1 YC0       0.038700
     63 H24        -30.4140    59.1850     4.2870 hc         1 YC0       0.038700
     64 H25        -32.7480    59.4330     3.3110 hc         1 YC0       0.033367
     65 H26        -33.1990    59.3730     1.6090 hc         1 YC0       0.033367
     66 H27        -33.9880    58.3160     2.7690 hc         1 YC0       0.033367
     67 H28        -28.8090    55.0320     2.7530 hc         1 YC0       0.036700
     68 H29        -30.3050    54.2210     3.1270 hc         1 YC0       0.036700
     69 H30        -30.2220    55.3280     1.7780 hc         1 YC0       0.036700
     70 H31        -34.9140    54.0300     3.8010 hc         1 YC0       0.047033
     71 H32        -35.5570    55.5170     3.1100 hc         1 YC0       0.047033
     72 H33        -35.3460    54.0940     2.0880 hc         1 YC0       0.047033
     73 H34        -31.6620    50.6460     3.8630 h1         1 YC0       0.123700
     74 H35        -30.7860    49.7730     1.0790 h1         1 YC0       0.033700
     75 H36        -32.2750    49.3270     1.9210 h1         1 YC0       0.033700
     76 H37        -27.9110    50.6730     5.9340 h1         1 YC0       0.052033
     77 H38        -27.3090    50.2580     4.3150 h1         1 YC0       0.052033
     78 H39        -27.6200    51.9550     4.7420 h1         1 YC0       0.052033
     79 H40        -27.0050    53.7180     6.5210 ha         1 YC0       0.202000
     80 H41        -24.6760    57.0200     2.8050 ha         1 YC0       0.184000
     81 H43        -26.8600    57.8920     2.3700 ha         1 YC0       0.186000
     82 H44        -32.3400    53.9860     1.2030 hn         1 YC0       0.307500
     83 H45        -31.3230    52.1270     1.3310 hn         1 YC0       0.309500
     84 H47        -22.8610    52.4940     5.9320 ho         1 YC0       0.486000
     85 H48        -30.4470    47.7770     2.1210 ho         1 YC0       0.452000
     86 C29        -32.4050    52.8960     2.9060 c          1 YC0       0.657100
     87 O4         -30.5210    48.5240     2.7210 oh         1 YC0      -0.654000
@<TRIPOS>BOND
     1     1    12 1   
     2     1    16 1   
     3     1    29 2   
     4     2     6 1   
     5     2    17 1   
     6     2    22 1   
     7     2    32 1   
     8     3     4 1   
     9     3     7 1   
    10     3    18 1   
    11     3    32 1   
    12     4     5 1   
    13     4    10 1   
    14     4    20 1   
    15     5     6 1   
    16     5    40 1   
    17     5    41 1   
    18     6    42 1   
    19     6    43 1   
    20     7     8 1   
    21     7    44 1   
    22     7    45 1   
    23     8     9 1   
    24     8    46 1   
    25     8    47 1   
    26     9    10 1   
    27     9    11 1   
    28     9    19 1   
    29    10    15 1   
    30    10    48 1   
    31    11    13 1   
    32    11    49 1   
    33    11    50 1   
    34    12    22 1   
    35    12    30 2   
    36    13    14 1   
    37    13    51 1   
    38    13    52 1   
    39    14    15 1   
    40    14    21 1   
    41    14    33 1   
    42    15    53 1   
    43    15    54 1   
    44    16    55 1   
    45    16    56 1   
    46    16    57 1   
    47    17    58 1   
    48    17    59 1   
    49    17    60 1   
    50    18    61 1   
    51    18    62 1   
    52    18    63 1   
    53    19    64 1   
    54    19    65 1   
    55    19    66 1   
    56    20    67 1   
    57    20    68 1   
    58    20    69 1   
    59    21    70 1   
    60    21    71 1   
    61    21    72 1   
    62    22    27 2   
    63    23    24 1   
    64    23    25 1   
    65    23    34 1   
    66    23    73 1   
    67    24    74 1   
    68    24    75 1   
    69    24    87 1   
    70    25    38 1   
    71    25    39 2   
    72    26    38 1   
    73    26    76 1   
    74    26    77 1   
    75    26    78 1   
    76    27    28 1   
    77    27    79 1   
    78    28    29 1   
    79    28    35 2   
    80    29    36 1   
    81    30    31 1   
    82    30    80 1   
    83    31    32 2   
    84    31    81 1   
    85    33    82 1   
    86    33    86 1   
    87    34    83 1   
    88    34    86 1   
    89    36    84 1   
    90    37    86 2   
    91    85    87 1   
@<TRIPOS>SUBSTRUCTURE
     1 YC0         1 TEMP              0 ****  ****    0 ROOT
