@<TRIPOS>MOLECULE
YC0
   87    91     1     0     0
SMALL
No Charge or Current Charge


@<TRIPOS>ATOM
      1 C1         -24.0640    54.8560     4.4100 cc         1 YC0      -0.080200
      2 C10        -27.7220    56.0420     5.3410 c6         1 YC0       0.015400
      3 C11        -29.2780    57.5750     3.7350 c6         1 YC0       0.001200
      4 C12        -30.3460    56.3910     3.6880 c6         1 YC0      -0.012000
      5 C13        -30.3340    55.6990     5.0960 c6         1 YC0      -0.077400
      6 C14        -28.9570    55.0880     5.4690 c6         1 YC0      -0.062400
      7 C15        -29.3060    58.2650     2.3200 c6         1 YC0      -0.067400
      8 C16        -30.6730    58.9000     1.9570 c6         1 YC0      -0.068400
      9 C17        -31.9110    57.9630     2.1000 c6         1 YC0      -0.031000
     10 C18        -31.8090    56.9930     3.3700 c6         1 YC0      -0.028700
     11 C19        -32.1080    57.1950     0.7700 c6         1 YC0      -0.064400
     12 C2         -25.3010    55.6400     4.4470 cc         1 YC0      -0.074000
     13 C20        -33.7140    55.7970     1.0660 c6         1 YC0      -0.090400
     14 C21        -33.5400    55.0310     2.4020 c6         1 YC0       0.163400
     15 C22        -33.0760    56.0300     3.5330 c6         1 YC0      -0.080400
     16 C23        -22.9030    55.3360     3.5550 c3         1 YC0      -0.042900
     17 C24        -27.5480    56.8820     6.6490 c3         1 YC0      -0.081100
     18 C25        -29.5820    58.7070     4.7960 c3         1 YC0      -0.085100
     19 C26        -33.1590    58.9000     2.2530 c3         1 YC0      -0.090100
     20 C27        -29.8720    55.2970     2.6510 c3         1 YC0      -0.082100
     21 C28        -34.9340    54.4290     2.7720 c3         1 YC0      -0.108100
     22 C3         -26.4290    55.1820     5.2500 cc         1 YC0       0.031800
     23 C30        -30.7660    50.9000     3.2180 c3         1 YC0       0.060700
     24 C31        -31.4860    49.5700     2.9030 c3         1 YC0       0.157600
     25 C32        -29.2520    50.8300     2.9130 c          1 YC0       0.577100
     26 C33        -27.0650    50.7790     3.9280 c3         1 YC0       0.147900
     27 C4         -26.2980    54.0190     5.9920 cd         1 YC0      -0.328200
     28 C5         -25.0960    53.1990     6.0020 c          1 YC0       0.544500
     29 C6         -23.9800    53.6900     5.1550 cd         1 YC0       0.003900
     30 C7         -25.4490    56.7980     3.7410 cf         1 YC0      -0.096000
     31 C8         -26.7380    57.3630     3.4370 cf         1 YC0      -0.232000
     32 C9         -27.8600    57.0120     4.1140 c2         1 YC0      -0.031400
     33 N1         -32.5830    53.9370     2.1870 ns         1 YC0      -0.518900
     34 N2         -31.3690    52.0430     2.4920 ns         1 YC0      -0.520900
     35 O1         -25.0140    52.1730     6.6680 o          1 YC0      -0.569100
     36 O2         -22.8730    52.8910     5.1890 oh         1 YC0      -0.526100
     37 O3         -32.7950    52.7140     4.1250 o          1 YC0      -0.641100
     38 O5         -28.4980    50.7990     4.0600 os         1 YC0      -0.417100
     39 O6         -28.7820    50.8480     1.7810 o          1 YC0      -0.506000
     40 H1         -30.6740    56.3800     5.8850 hc         1 YC0       0.051200
     41 H2         -31.0490    54.8680     5.1150 hc         1 YC0       0.051200
     42 H3         -29.0300    54.7050     6.4960 hc         1 YC0       0.051200
     43 H4         -28.7880    54.1970     4.8490 hc         1 YC0       0.051200
     44 H5         -29.0060    57.5600     1.5340 hc         1 YC0       0.043200
     45 H6         -28.5770    59.0850     2.2850 hc         1 YC0       0.043200
     46 H7         -30.8130    59.8190     2.5410 hc         1 YC0       0.038200
     47 H8         -30.6230    59.2550     0.9190 hc         1 YC0       0.038200
     48 H9         -31.9660    57.6640     4.2220 hc         1 YC0       0.040700
     49 H10        -31.1990    56.7070     0.4100 hc         1 YC0       0.039700
     50 H11        -32.3860    57.8850    -0.0380 hc         1 YC0       0.039700
     51 H12        -34.6540    56.3640     1.0760 hc         1 YC0       0.047200
     52 H13        -33.7850    55.1060     0.2150 hc         1 YC0       0.047200
     53 H14        -33.9360    56.6800     3.7400 hc         1 YC0       0.056200
     54 H15        -32.9940    55.4680     4.4680 hc         1 YC0       0.056200
     55 H16        -22.0450    54.6560     3.5840 hc         1 YC0       0.045700
     56 H17        -23.2010    55.4240     2.5030 hc         1 YC0       0.045700
     57 H18        -22.5450    56.3150     3.8950 hc         1 YC0       0.045700
     58 H19        -27.0870    56.2860     7.4450 hc         1 YC0       0.044367
     59 H20        -26.9000    57.7510     6.4840 hc         1 YC0       0.044367
     60 H21        -28.4950    57.2310     7.0650 hc         1 YC0       0.044367
     61 H22        -29.7360    58.3330     5.8050 hc         1 YC0       0.038700
     62 H23        -28.7550    59.4250     4.8420 hc         1 YC0       0.038700
     63 H24        -30.4850    59.2850     4.5850 hc         1 YC0       0.038700
     64 H25        -33.1230    59.4690     3.1900 hc         1 YC0       0.033367
     65 H26        -33.2070    59.6290     1.4350 hc         1 YC0       0.033367
     66 H27        -34.1070    58.3540     2.2410 hc         1 YC0       0.033367
     67 H28        -28.7890    55.2940     2.4960 hc         1 YC0       0.036700
     68 H29        -30.1040    54.2890     2.9950 hc         1 YC0       0.036700
     69 H30        -30.3140    55.3890     1.6660 hc         1 YC0       0.036700
     70 H31        -34.9410    53.9670     3.7650 hc         1 YC0       0.047033
     71 H32        -35.7130    55.2000     2.7890 hc         1 YC0       0.047033
     72 H33        -35.2450    53.6670     2.0470 hc         1 YC0       0.047033
     73 H34        -30.8540    51.0830     4.2960 h1         1 YC0       0.123700
     74 H35        -31.3910    49.3550     1.8300 h1         1 YC0       0.033700
     75 H36        -32.5550    49.6850     3.1260 h1         1 YC0       0.033700
     76 H37        -26.5930    50.7240     4.9170 h1         1 YC0       0.052033
     77 H38        -26.7370    49.9070     3.3470 h1         1 YC0       0.052033
     78 H39        -26.7050    51.6880     3.4280 h1         1 YC0       0.052033
     79 H40        -27.0740    53.6410     6.6430 ha         1 YC0       0.202000
     80 H41        -24.6020    57.1750     3.1690 ha         1 YC0       0.184000
     81 H43        -26.7510    58.0660     2.6060 ha         1 YC0       0.186000
     82 H44        -32.0800    53.9460     1.3120 hn         1 YC0       0.307500
     83 H45        -31.0160    52.2610     1.5680 hn         1 YC0       0.309500
     84 H47        -23.0860    52.1480     5.8010 ho         1 YC0       0.486000
     85 H48        -31.4530    47.6870     3.4600 ho         1 YC0       0.452000
     86 C29        -32.3080    52.8820     3.0220 c          1 YC0       0.657100
     87 O4         -30.9350    48.4940     3.6770 oh         1 YC0      -0.654000
@<TRIPOS>BOND
     1     1    12 1   
     2     1    16 1   
     3     1    29 2   
     4     2     6 1   
     5     2    17 1   
     6     2    22 1   
     7     2    32 1   
     8     3     4 1   
     9     3     7 1   
    10     3    18 1   
    11     3    32 1   
    12     4     5 1   
    13     4    10 1   
    14     4    20 1   
    15     5     6 1   
    16     5    40 1   
    17     5    41 1   
    18     6    42 1   
    19     6    43 1   
    20     7     8 1   
    21     7    44 1   
    22     7    45 1   
    23     8     9 1   
    24     8    46 1   
    25     8    47 1   
    26     9    10 1   
    27     9    11 1   
    28     9    19 1   
    29    10    15 1   
    30    10    48 1   
    31    11    13 1   
    32    11    49 1   
    33    11    50 1   
    34    12    22 1   
    35    12    30 2   
    36    13    14 1   
    37    13    51 1   
    38    13    52 1   
    39    14    15 1   
    40    14    21 1   
    41    14    33 1   
    42    15    53 1   
    43    15    54 1   
    44    16    55 1   
    45    16    56 1   
    46    16    57 1   
    47    17    58 1   
    48    17    59 1   
    49    17    60 1   
    50    18    61 1   
    51    18    62 1   
    52    18    63 1   
    53    19    64 1   
    54    19    65 1   
    55    19    66 1   
    56    20    67 1   
    57    20    68 1   
    58    20    69 1   
    59    21    70 1   
    60    21    71 1   
    61    21    72 1   
    62    22    27 2   
    63    23    24 1   
    64    23    25 1   
    65    23    34 1   
    66    23    73 1   
    67    24    74 1   
    68    24    75 1   
    69    24    87 1   
    70    25    38 1   
    71    25    39 2   
    72    26    38 1   
    73    26    76 1   
    74    26    77 1   
    75    26    78 1   
    76    27    28 1   
    77    27    79 1   
    78    28    29 1   
    79    28    35 2   
    80    29    36 1   
    81    30    31 1   
    82    30    80 1   
    83    31    32 2   
    84    31    81 1   
    85    33    82 1   
    86    33    86 1   
    87    34    83 1   
    88    34    86 1   
    89    36    84 1   
    90    37    86 2   
    91    85    87 1   
@<TRIPOS>SUBSTRUCTURE
     1 YC0         1 TEMP              0 ****  ****    0 ROOT
