@<TRIPOS>MOLECULE
YC1
   39    42     1     0     0
SMALL
No Charge or Current Charge


@<TRIPOS>ATOM
      1 C05         98.7800   103.7490   114.2160 ca         1 YC1      -0.036200
      2 C06        100.0820   103.3370   114.2620 ca         1 YC1      -0.205900
      3 C07        100.8110   104.4280   114.9170 cc         1 YC1       0.304900
      4 C09        102.2300   104.5060   115.2160 cc         1 YC1       0.145700
      5 C10         97.7550   102.9730   113.6540 ca         1 YC1      -0.123000
      6 C11         96.8960   106.2710   113.6240 ca         1 YC1      -0.123300
      7 C12        100.4530   102.0850   113.7340 ca         1 YC1      -0.037000
      8 C13         98.1030   101.7170   113.1200 ca         1 YC1      -0.076000
      9 C14         99.4450   101.2780   113.1620 ca         1 YC1      -0.146000
     10 C15        103.2300   103.5970   114.9660 cd         1 YC1      -0.171000
     11 C16        104.1120   105.3860   115.9840 cc         1 YC1       0.127300
     12 C17         97.7170   106.7350   112.5740 ca         1 YC1      -0.087500
     13 C18         95.4980   106.2580   113.4500 ca         1 YC1      -0.087500
     14 C19        104.4250   104.1630   115.4560 cd         1 YC1      -0.170000
     15 C20         97.1450   107.1690   111.3650 ca         1 YC1      -0.113500
     16 C21         94.9280   106.6930   112.2410 ca         1 YC1      -0.113500
     17 C22        104.9800   106.4340   116.6380 c3         1 YC1       0.138300
     18 C23         95.7510   107.1470   111.1970 ca         1 YC1      -0.098000
     19 N03         98.7360   104.9930   114.7980 na         1 YC1       0.082600
     20 N04         99.9740   105.4340   115.2400 nd         1 YC1      -0.490100
     21 O01        102.7620   105.6160   115.8430 os         1 YC1      -0.205000
     22 O02        105.4080   106.0270   117.9470 oh         1 YC1      -0.645000
     23 H1          97.7290   106.6690   115.5670 h1         1 YC1       0.072700
     24 H2          96.7710   105.1870   115.4910 h1         1 YC1       0.072700
     25 H3          96.7260   103.3240   113.6270 ha         1 YC1       0.120000
     26 H4         101.4700   101.7170   113.7490 ha         1 YC1       0.119000
     27 H5          97.3370   101.0860   112.6750 ha         1 YC1       0.112000
     28 H6          99.7060   100.3060   112.7470 ha         1 YC1       0.114000
     29 H7         103.1520   102.6310   114.4900 ha         1 YC1       0.141000
     30 H8          98.7980   106.7610   112.6910 ha         1 YC1       0.118500
     31 H9          94.8490   105.9090   114.2510 ha         1 YC1       0.118500
     32 H10        105.4150   103.7180   115.4260 ha         1 YC1       0.140000
     33 H11         97.7840   107.5230   110.5590 ha         1 YC1       0.115000
     34 H12         93.8480   106.6770   112.1130 ha         1 YC1       0.115000
     35 H13        105.8500   106.6170   115.9930 h1         1 YC1       0.035700
     36 H14        104.4150   107.3740   116.6990 h1         1 YC1       0.035700
     37 H15         95.3100   107.4830   110.2610 ha         1 YC1       0.113000
     38 H16        105.9610   106.7550   118.3100 ho         1 YC1       0.444000
     39 C08         97.5030   105.7940   114.9450 c3         1 YC1       0.142900
@<TRIPOS>BOND
     1     1     2 ar  
     2     1     5 ar  
     3     1    19 1   
     4     2     3 1   
     5     2     7 ar  
     6     3     4 1   
     7     3    20 2   
     8     4    10 2   
     9     4    21 1   
    10     5     8 ar  
    11     5    25 1   
    12     6    12 ar  
    13     6    13 ar  
    14     6    39 1   
    15     7     9 ar  
    16     7    26 1   
    17     8     9 ar  
    18     8    27 1   
    19     9    28 1   
    20    10    14 1   
    21    10    29 1   
    22    11    14 2   
    23    11    17 1   
    24    11    21 1   
    25    12    15 ar  
    26    12    30 1   
    27    13    16 ar  
    28    13    31 1   
    29    14    32 1   
    30    15    18 ar  
    31    15    33 1   
    32    16    18 ar  
    33    16    34 1   
    34    17    22 1   
    35    17    35 1   
    36    17    36 1   
    37    18    37 1   
    38    19    20 1   
    39    19    39 1   
    40    22    38 1   
    41    23    39 1   
    42    24    39 1   
@<TRIPOS>SUBSTRUCTURE
     1 YC1         1 TEMP              0 ****  ****    0 ROOT
