@<TRIPOS>MOLECULE
YC1
   39    42     1     0     0
SMALL
bcc


@<TRIPOS>ATOM
      1 C05         98.6090   103.3970   114.3760 ca         1 YC1      -0.036200
      2 C06         99.9580   103.0100   114.3200 ca         1 YC1      -0.205900
      3 C07        100.6570   104.1180   114.8870 cc         1 YC1       0.304900
      4 C09        102.0790   104.2810   115.0780 cc         1 YC1       0.255400
      5 C10         97.5760   102.5840   113.8950 ca         1 YC1      -0.141000
      6 C11         97.1500   106.2760   113.8470 ca         1 YC1      -0.123300
      7 C12        100.3010   101.7690   113.7690 ca         1 YC1      -0.055000
      8 C13         97.9410   101.3690   113.3620 ca         1 YC1      -0.094000
      9 C14         99.2890   100.9620   113.2970 ca         1 YC1      -0.164000
     10 C15        103.1310   103.4220   114.9980 cd         1 YC1      -0.254300
     11 C16        103.8640   105.4510   115.5490 cc         1 YC1       0.237000
     12 C17         98.0470   107.2410   113.3920 ca         1 YC1      -0.105500
     13 C18         95.9930   106.0320   113.1170 ca         1 YC1      -0.105500
     14 C19        104.2900   104.1880   115.3080 cd         1 YC1      -0.253300
     15 C20         97.7900   107.9450   112.2250 ca         1 YC1      -0.131500
     16 C21         95.7310   106.7390   111.9490 ca         1 YC1      -0.131500
     17 C22        104.5750   106.7030   115.9000 c3         1 YC1       0.115100
     18 C23         96.6300   107.6950   111.5000 ca         1 YC1      -0.116000
     19 N03         98.5840   104.6250   114.9540 na         1 YC1       0.111900
     20 N04         99.8100   105.0580   115.2450 nd         1 YC1      -0.490100
     21 O01        102.5210   105.5120   115.4100 os         1 YC1      -0.293800
     22 O02        104.1580   107.1270   117.1800 oh         1 YC1      -0.582800
     23 H1          97.6680   106.1730   115.9360 h1         1 YC1       0.072700
     24 H2          96.5840   104.9010   115.4010 h1         1 YC1       0.072700
     25 H3          96.5400   102.8900   113.9360 ha         1 YC1       0.138000
     26 H4         101.3300   101.4440   113.7050 ha         1 YC1       0.137000
     27 H5          97.1750   100.7090   112.9780 ha         1 YC1       0.130000
     28 H6          99.5290   100.0000   112.8660 ha         1 YC1       0.132000
     29 H7         103.0930   102.3700   114.7660 ha         1 YC1       0.159000
     30 H8          98.9520   107.4450   113.9530 ha         1 YC1       0.136500
     31 H9          95.2870   105.2860   113.4640 ha         1 YC1       0.136500
     32 H10        105.3100   103.8400   115.3490 ha         1 YC1       0.158000
     33 H11         98.4930   108.6930   111.8830 ha         1 YC1       0.133000
     34 H12         94.8250   106.5400   111.3910 ha         1 YC1       0.133000
     35 H13        105.6500   106.4930   115.8580 h1         1 YC1       0.035700
     36 H14        104.3700   107.4680   115.1400 h1         1 YC1       0.035700
     37 H15         96.4290   108.2460   110.5910 ha         1 YC1       0.131000
     38 H16        104.4800   108.0230   117.3160 ho         1 YC1       0.405000
     39 C08         97.4450   105.5020   115.1070 c3         1 YC1       0.113600
@<TRIPOS>BOND
     1     1     2 ar  
     2     1     5 ar  
     3     1    19 1   
     4     2     3 1   
     5     2     7 ar  
     6     3     4 1   
     7     3    20 2   
     8     4    10 2   
     9     4    21 1   
    10     5     8 ar  
    11     5    25 1   
    12     6    12 ar  
    13     6    13 ar  
    14     6    39 1   
    15     7     9 ar  
    16     7    26 1   
    17     8     9 ar  
    18     8    27 1   
    19     9    28 1   
    20    10    14 1   
    21    10    29 1   
    22    11    14 2   
    23    11    17 1   
    24    11    21 1   
    25    12    15 ar  
    26    12    30 1   
    27    13    16 ar  
    28    13    31 1   
    29    14    32 1   
    30    15    18 ar  
    31    15    33 1   
    32    16    18 ar  
    33    16    34 1   
    34    17    22 1   
    35    17    35 1   
    36    17    36 1   
    37    18    37 1   
    38    19    20 1   
    39    19    39 1   
    40    22    38 1   
    41    23    39 1   
    42    24    39 1   
@<TRIPOS>SUBSTRUCTURE
     1 YC1         1 TEMP              0 ****  ****    0 ROOT
