@<TRIPOS>MOLECULE
YC2
   52    52     1     0     0
SMALL
No Charge or Current Charge


@<TRIPOS>ATOM
      1 I24         24.3120    51.9290    50.3340 i          1 YC2      -0.384000
      2 C23         24.0970    50.8160    48.4870 ca         1 YC2       0.210000
      3 C22         23.4880    51.4140    47.3750 ca         1 YC2      -0.099500
      4 C21         23.3480    50.6930    46.1760 ca         1 YC2      -0.061500
      5 C25         24.5660    49.4980    48.4040 ca         1 YC2      -0.099500
      6 C26         24.4300    48.7700    47.2070 ca         1 YC2      -0.061500
      7 C20         23.8170    49.3620    46.0720 ca         1 YC2      -0.125600
      8 C19         23.6470    48.6170    44.7610 c          1 YC2       0.617700
      9 O27         23.1100    49.1340    43.7900 o          1 YC2      -0.611100
     10 N18         24.1340    47.3270    44.7100 ns         1 YC2      -0.484900
     11 C17         24.0060    46.4190    43.5660 c3         1 YC2       0.104000
     12 C16         23.3140    45.0920    43.9500 c3         1 YC2      -0.087400
     13 C15         21.8940    45.2330    44.5530 c3         1 YC2      -0.065400
     14 C14         20.8590    45.8760    43.5980 c3         1 YC2      -0.097400
     15 C13         19.4090    45.8670    44.1510 c3         1 YC2       0.002700
     16 C28         19.2750    46.6460    45.5060 c          1 YC2       0.710000
     17 O30         19.0770    46.0020    46.5270 o          1 YC2      -0.757000
     18 O29         19.2430    47.8700    45.4790 o          1 YC2      -0.757000
     19 N12         18.4520    46.3980    43.1510 ns         1 YC2      -0.509900
     20 C11         17.9720    45.7080    42.0700 c          1 YC2       0.642100
     21 O31         18.2670    44.5490    41.8210 o          1 YC2      -0.700100
     22 N10         17.1280    46.4660    41.3010 ns         1 YC2      -0.462900
     23 C6          16.4220    46.0010    40.0800 c3         1 YC2      -0.041300
     24 C7          16.0010    47.2060    39.1720 c          1 YC2       0.717000
     25 O9          15.8260    48.3050    39.6830 o          1 YC2      -0.754500
     26 O8          15.9830    47.0310    37.9600 o          1 YC2      -0.754500
     27 C5          15.2270    45.0610    40.4040 c3         1 YC2      -0.038400
     28 C4          14.1180    45.6840    41.2940 c3         1 YC2      -0.200400
     29 C2          12.9810    44.6710    41.5110 c          1 YC2       0.713000
     30 O1          12.0680    44.6430    40.6990 o          1 YC2      -0.776500
     31 O3          13.0570    43.9070    42.4610 o          1 YC2      -0.776500
     32 H22         23.1250    52.4360    47.4430 ha         1 YC2       0.121500
     33 H21         22.8720    51.1760    45.3240 ha         1 YC2       0.154000
     34 H25         25.0370    49.0390    49.2690 ha         1 YC2       0.121500
     35 H26         24.8060    47.7500    47.1840 ha         1 YC2       0.154000
     36 HN18        24.5780    46.9720    45.5460 hn         1 YC2       0.311500
     37 H17         23.4430    46.9030    42.7570 h1         1 YC2       0.046700
     38 H17A        25.0120    46.2020    43.1830 h1         1 YC2       0.046700
     39 H16         23.2630    44.4530    43.0600 hc         1 YC2       0.023700
     40 H16A        23.9480    44.5640    44.6730 hc         1 YC2       0.023700
     41 H15         21.5400    44.2330    44.8340 hc         1 YC2       0.037700
     42 H15A        21.9490    45.8140    45.4820 hc         1 YC2       0.037700
     43 H14         21.1510    46.9110    43.3840 hc         1 YC2       0.053700
     44 H14A        20.8800    45.3360    42.6430 hc         1 YC2       0.053700
     45 H13         19.1290    44.8250    44.3550 h1         1 YC2       0.049700
     46 HN12        18.1350    47.3520    43.2670 hn         1 YC2       0.320500
     47 HN10        16.9680    47.4210    41.5930 hn         1 YC2       0.283500
     48 H6          17.1460    45.4190    39.4950 h1         1 YC2       0.038700
     49 H5          14.7800    44.7290    39.4590 hc         1 YC2       0.026200
     50 H5A         15.6080    44.1580    40.8950 hc         1 YC2       0.026200
     51 H4          14.5940    45.9290    42.2510 hc         1 YC2       0.029200
     52 H4A         13.7440    46.5580    40.7490 hc         1 YC2       0.029200
@<TRIPOS>BOND
     1     1     2 1   
     2     2     3 ar  
     3     2     5 ar  
     4     3     4 ar  
     5     3    32 1   
     6     4     7 ar  
     7     4    33 1   
     8     5     6 ar  
     9     5    34 1   
    10     6     7 ar  
    11     6    35 1   
    12     7     8 1   
    13     8     9 2   
    14     8    10 1   
    15    10    11 1   
    16    10    36 1   
    17    11    12 1   
    18    11    37 1   
    19    11    38 1   
    20    12    13 1   
    21    12    39 1   
    22    12    40 1   
    23    13    14 1   
    24    13    41 1   
    25    13    42 1   
    26    14    15 1   
    27    14    43 1   
    28    14    44 1   
    29    15    16 1   
    30    15    19 1   
    31    15    45 1   
    32    16    17 1   
    33    16    18 1   
    34    19    20 1   
    35    19    46 1   
    36    20    21 2   
    37    20    22 1   
    38    22    23 1   
    39    22    47 1   
    40    23    24 1   
    41    23    27 1   
    42    23    48 1   
    43    24    25 1   
    44    24    26 1   
    45    27    28 1   
    46    27    49 1   
    47    27    50 1   
    48    28    29 1   
    49    28    51 1   
    50    28    52 1   
    51    29    30 1   
    52    29    31 1   
@<TRIPOS>SUBSTRUCTURE
     1 YC2         1 TEMP              0 ****  ****    0 ROOT
