@<TRIPOS>MOLECULE
YC2
   52    52     1     0     0
SMALL
bcc


@<TRIPOS>ATOM
      1 I24         23.3270    50.3130    50.8420 i          1 YC2      -0.246900
      2 C23         23.2640    49.9500    48.7720 ca         1 YC2       0.072900
      3 C22         23.5060    50.9930    47.8880 ca         1 YC2      -0.117500
      4 C21         23.4560    50.7470    46.5250 ca         1 YC2      -0.079500
      5 C25         22.9740    48.6750    48.3120 ca         1 YC2      -0.117500
      6 C26         22.9440    48.4390    46.9450 ca         1 YC2      -0.079500
      7 C20         23.1940    49.4680    46.0420 ca         1 YC2      -0.125600
      8 C19         23.1180    49.2580    44.5620 c          1 YC2       0.684700
      9 O27         22.6810    50.1300    43.8230 o          1 YC2      -0.611100
     10 N18         23.5490    48.0660    44.1240 ns         1 YC2      -0.551900
     11 C17         23.4350    47.6310    42.7480 c3         1 YC2       0.104000
     12 C16         23.4220    46.1090    42.6510 c3         1 YC2      -0.087400
     13 C15         22.4190    45.4190    43.5730 c3         1 YC2      -0.065400
     14 C14         20.9790    45.8760    43.3820 c3         1 YC2      -0.097400
     15 C13         19.9860    45.2940    44.4080 c3         1 YC2       0.002700
     16 C28         20.1970    45.9760    45.7800 c          1 YC2       0.920600
     17 O30         21.0590    45.4730    46.5290 o          1 YC2      -0.862300
     18 O29         19.5200    47.0010    45.9990 o          1 YC2      -0.862300
     19 N12         18.6220    45.5070    43.9780 ns         1 YC2      -0.576900
     20 C11         18.0430    44.7770    42.9930 c          1 YC2       0.776100
     21 O31         18.5310    43.7300    42.5730 o          1 YC2      -0.700100
     22 N10         16.8350    45.2460    42.5530 ns         1 YC2      -0.529900
     23 C6          16.3360    44.7880    41.2720 c3         1 YC2      -0.041300
     24 C7          17.2530    45.1610    40.0780 c          1 YC2       0.927600
     25 O9          18.1410    46.0150    40.2660 o          1 YC2      -0.859800
     26 O8          16.9910    44.5720    39.0090 o          1 YC2      -0.859800
     27 C5          14.9120    45.3050    41.0450 c3         1 YC2      -0.038400
     28 C4          14.7870    46.8140    40.8800 c3         1 YC2      -0.200400
     29 C2          13.3550    47.3350    40.6320 c          1 YC2       0.923600
     30 O1          12.5030    46.5160    40.2320 o          1 YC2      -0.881800
     31 O3          13.1770    48.5560    40.8260 o          1 YC2      -0.881800
     32 H22         23.7270    51.9890    48.2450 ha         1 YC2       0.139500
     33 H21         23.6340    51.5620    45.8360 ha         1 YC2       0.172000
     34 H25         22.7630    47.8650    48.9970 ha         1 YC2       0.139500
     35 H26         22.6870    47.4430    46.6040 ha         1 YC2       0.172000
     36 HN18        24.0370    47.4610    44.7660 hn         1 YC2       0.311500
     37 H17         22.5160    48.0450    42.3320 h1         1 YC2       0.046700
     38 H17A        24.2570    48.0290    42.1460 h1         1 YC2       0.046700
     39 H16         23.2170    45.8520    41.6080 hc         1 YC2       0.023700
     40 H16A        24.4230    45.7240    42.8660 hc         1 YC2       0.023700
     41 H15         22.4750    44.3410    43.3950 hc         1 YC2       0.037700
     42 H15A        22.7190    45.5570    44.6120 hc         1 YC2       0.037700
     43 H14         20.9050    46.9670    43.4310 hc         1 YC2       0.053700
     44 H14A        20.6480    45.5960    42.3770 hc         1 YC2       0.053700
     45 H13         20.1620    44.2210    44.5060 h1         1 YC2       0.049700
     46 HN12        18.2280    46.3930    44.2560 hn         1 YC2       0.320500
     47 HN10        16.6540    46.2180    42.7500 hn         1 YC2       0.283500
     48 H6          16.2730    43.6970    41.3130 h1         1 YC2       0.038700
     49 H5          14.5180    44.8120    40.1560 hc         1 YC2       0.026200
     50 H5A         14.2850    44.9730    41.8780 hc         1 YC2       0.026200
     51 H4          15.1910    47.3450    41.7480 hc         1 YC2       0.029200
     52 H4A         15.4000    47.1460    40.0330 hc         1 YC2       0.029200
@<TRIPOS>BOND
     1     1     2 1   
     2     2     3 ar  
     3     2     5 ar  
     4     3     4 ar  
     5     3    32 1   
     6     4     7 ar  
     7     4    33 1   
     8     5     6 ar  
     9     5    34 1   
    10     6     7 ar  
    11     6    35 1   
    12     7     8 1   
    13     8     9 2   
    14     8    10 1   
    15    10    11 1   
    16    10    36 1   
    17    11    12 1   
    18    11    37 1   
    19    11    38 1   
    20    12    13 1   
    21    12    39 1   
    22    12    40 1   
    23    13    14 1   
    24    13    41 1   
    25    13    42 1   
    26    14    15 1   
    27    14    43 1   
    28    14    44 1   
    29    15    16 1   
    30    15    19 1   
    31    15    45 1   
    32    16    17 1   
    33    16    18 1   
    34    19    20 1   
    35    19    46 1   
    36    20    21 2   
    37    20    22 1   
    38    22    23 1   
    39    22    47 1   
    40    23    24 1   
    41    23    27 1   
    42    23    48 1   
    43    24    25 1   
    44    24    26 1   
    45    27    28 1   
    46    27    49 1   
    47    27    50 1   
    48    28    29 1   
    49    28    51 1   
    50    28    52 1   
    51    29    30 1   
    52    29    31 1   
@<TRIPOS>SUBSTRUCTURE
     1 YC2         1 TEMP              0 ****  ****    0 ROOT
