@<TRIPOS>MOLECULE
YC4
   28    29     1     0     0
SMALL
No Charge or Current Charge


@<TRIPOS>ATOM
      1 C01        -22.6200    -7.8580     9.9980 c3         1 YC4       0.101300
      2 C04        -19.1210    -8.3010    10.7560 cc         1 YC4       0.304500
      3 C05        -18.4020    -7.5610     9.7320 cc         1 YC4       0.154400
      4 C07        -16.1300    -8.2180    10.7020 c5         1 YC4       0.193500
      5 C08        -14.7190    -8.1580    10.0690 c5         1 YC4      -0.119400
      6 C09        -13.8730    -8.2250    11.3590 c5         1 YC4       0.136800
      7 C11        -15.9690    -7.2700    11.9440 c5         1 YC4       0.112800
      8 C12        -19.1450    -6.9040     8.7760 cd         1 YC4      -0.145200
      9 C14        -20.6280    -6.9640     8.8060 c          1 YC4       0.566200
     10 N02        -21.1500    -7.7360     9.8800 n          1 YC4      -0.140800
     11 N03        -20.4450    -8.4200    10.8750 nd         1 YC4      -0.390300
     12 N06        -17.0080    -7.5180     9.7260 nu         1 YC4      -0.807200
     13 N10        -14.4970    -7.1770    12.2020 n7         1 YC4      -0.823400
     14 Cl13       -18.4140    -5.9730     7.4880 cl         1 YC4      -0.165000
     15 H1         -22.8910    -8.4770    10.8630 h1         1 YC4       0.058700
     16 H2         -23.0640    -6.8630    10.1230 h1         1 YC4       0.058700
     17 H3         -23.0260    -8.3220     9.0900 h1         1 YC4       0.058700
     18 H4         -18.5970    -8.8340    11.5360 h4         1 YC4       0.043800
     19 H5         -16.4340    -9.2410    10.9680 h1         1 YC4       0.059700
     20 H6         -14.5240    -8.9950     9.3900 hc         1 YC4       0.059200
     21 H7         -14.5210    -7.2260     9.5250 hc         1 YC4       0.059200
     22 H8         -13.9560    -9.2150    11.8330 h1         1 YC4       0.059700
     23 H9         -12.8070    -8.0250    11.1760 h1         1 YC4       0.059700
     24 H10        -16.3850    -6.2680    11.7610 h1         1 YC4       0.067200
     25 H11        -16.5000    -7.6880    12.8110 h1         1 YC4       0.067200
     26 H14        -16.5990    -6.9630     8.9710 hn         1 YC4       0.506000
     27 H15        -14.2830    -7.3300    13.1970 hn         1 YC4       0.401000
     28 O15        -21.3440    -6.4020     7.9830 o          1 YC4      -0.538000
@<TRIPOS>BOND
     1     1    10 1   
     2     1    15 1   
     3     1    16 1   
     4     1    17 1   
     5     2     3 1   
     6     2    11 2   
     7     2    18 1   
     8     3     8 2   
     9     3    12 1   
    10     4     5 1   
    11     4     7 1   
    12     4    12 1   
    13     4    19 1   
    14     5     6 1   
    15     5    20 1   
    16     5    21 1   
    17     6    13 1   
    18     6    22 1   
    19     6    23 1   
    20     7    13 1   
    21     7    24 1   
    22     7    25 1   
    23     8     9 1   
    24     8    14 1   
    25     9    10 1   
    26     9    28 2   
    27    10    11 1   
    28    12    26 1   
    29    13    27 1   
@<TRIPOS>SUBSTRUCTURE
     1 YC4         1 TEMP              0 ****  ****    0 ROOT
