@<TRIPOS>MOLECULE
YC4
   28    29     1     0     0
SMALL
abcg2


@<TRIPOS>ATOM
      1 C01        -22.5770    -7.8030    10.0410 c3         1 YC4       0.101300
      2 C04        -19.1020    -8.2340    10.7740 cc         1 YC4       0.304500
      3 C05        -18.3900    -7.5610     9.7240 cc         1 YC4       0.154400
      4 C07        -16.1540    -8.1070    10.6810 c5         1 YC4       0.193500
      5 C08        -14.7220    -8.2740    10.1430 c5         1 YC4      -0.119400
      6 C09        -13.8110    -7.9870    11.3650 c5         1 YC4       0.136800
      7 C11        -15.9500    -7.2460    11.9450 c5         1 YC4       0.112800
      8 C12        -19.1850    -6.9520     8.7670 cd         1 YC4      -0.145200
      9 C14        -20.6110    -7.0000     8.8090 c          1 YC4       0.566200
     10 N02        -21.1270    -7.7020     9.9020 n          1 YC4      -0.140800
     11 N03        -20.3960    -8.2920    10.8440 nd         1 YC4      -0.390300
     12 N06        -17.0450    -7.5440     9.6820 nu         1 YC4      -0.807200
     13 N10        -14.6910    -7.7130    12.5230 n7         1 YC4      -0.823400
     14 CL13       -18.4560    -6.1000     7.4440 cl         1 YC4      -0.165000
     15 H1         -22.7750    -8.3810    10.9380 h1         1 YC4       0.058700
     16 H2         -23.0140    -6.8090    10.1290 h1         1 YC4       0.058700
     17 H3         -23.0030    -8.2980     9.1700 h1         1 YC4       0.058700
     18 H4         -18.5710    -8.7280    11.5730 h4         1 YC4       0.043800
     19 H5         -16.5400    -9.0830    10.9810 h1         1 YC4       0.059700
     20 H6         -14.5660    -9.2690     9.7280 hc         1 YC4       0.059200
     21 H7         -14.5380    -7.5500     9.3460 hc         1 YC4       0.059200
     22 H8         -13.1440    -8.8170    11.5970 h1         1 YC4       0.059700
     23 H9         -13.1930    -7.1080    11.1690 h1         1 YC4       0.059700
     24 H10        -15.8550    -6.1970    11.6450 h1         1 YC4       0.067200
     25 H11        -16.7650    -7.3270    12.6620 h1         1 YC4       0.067200
     26 H14        -16.6230    -6.9740     8.9640 hn         1 YC4       0.506000
     27 H15        -14.8670    -8.5860    13.0090 hn         1 YC4       0.401000
     28 O15        -21.3820    -6.4900     7.9870 o          1 YC4      -0.538000
@<TRIPOS>BOND
     1     1    10 1   
     2     1    15 1   
     3     1    16 1   
     4     1    17 1   
     5     2     3 1   
     6     2    11 2   
     7     2    18 1   
     8     3     8 2   
     9     3    12 1   
    10     4     5 1   
    11     4     7 1   
    12     4    12 1   
    13     4    19 1   
    14     5     6 1   
    15     5    20 1   
    16     5    21 1   
    17     6    13 1   
    18     6    22 1   
    19     6    23 1   
    20     7    13 1   
    21     7    24 1   
    22     7    25 1   
    23     8     9 1   
    24     8    14 1   
    25     9    10 1   
    26     9    28 2   
    27    10    11 1   
    28    12    26 1   
    29    13    27 1   
@<TRIPOS>SUBSTRUCTURE
     1 YC4         1 TEMP              0 ****  ****    0 ROOT
