@<TRIPOS>MOLECULE
YC5
   15    15     1     0     0
SMALL
abcg2


@<TRIPOS>ATOM
      1 C1         -31.2710     9.2490     6.9960 ca         1 YC5      -0.094000
      2 C2         -30.8640     8.0430     7.5530 ca         1 YC5      -0.143000
      3 C3         -30.9500     6.8410     6.8430 ca         1 YC5       0.250000
      4 C4         -31.4660     6.9310     5.5490 ca         1 YC5       0.111000
      5 C5         -31.8780     8.1100     4.9690 ca         1 YC5      -0.092000
      6 C6         -31.7800     9.2960     5.6990 ca         1 YC5      -0.094000
      7 S1         -32.3290    10.8000     4.9260 sh         1 YC5      -0.179800
      8 F1         -31.5600     5.7790     4.8270 f          1 YC5      -0.187000
      9 N1         -30.4920     5.6320     7.3510 nv         1 YC5      -1.055000
     10 H1         -31.1900    10.1550     7.5820 ha         1 YC5       0.116000
     11 H2         -30.4700     8.0250     8.5620 ha         1 YC5       0.118000
     12 H3         -32.2670     8.0940     3.9590 ha         1 YC5       0.142000
     13 H4         -31.9390    11.6370     5.9000 hs         1 YC5       0.205800
     14 H5         -30.4600     5.5880     8.3600 hn         1 YC5       0.452500
     15 H6         -30.9260     4.8110     6.9550 hn         1 YC5       0.452500
@<TRIPOS>BOND
     1     1     2 ar  
     2     1     6 ar  
     3     1    10 1   
     4     2     3 ar  
     5     2    11 1   
     6     3     4 ar  
     7     3     9 1   
     8     4     5 ar  
     9     4     8 1   
    10     5     6 ar  
    11     5    12 1   
    12     6     7 1   
    13     7    13 1   
    14     9    14 1   
    15     9    15 1   
@<TRIPOS>SUBSTRUCTURE
     1 YC5         1 TEMP              0 ****  ****    0 ROOT
