@<TRIPOS>MOLECULE
YC5
   15    15     1     0     0
SMALL
No Charge or Current Charge


@<TRIPOS>ATOM
      1 C1         -31.2680     9.2590     6.9790 ca         1 YC5      -0.094000
      2 C2         -30.8820     8.0350     7.5580 ca         1 YC5      -0.143000
      3 C3         -30.9930     6.8370     6.8330 ca         1 YC5       0.250000
      4 C4         -31.5000     6.8800     5.5100 ca         1 YC5       0.111000
      5 C5         -31.8850     8.1030     4.9340 ca         1 YC5      -0.092000
      6 C6         -31.7710     9.2990     5.6650 ca         1 YC5      -0.094000
      7 S1         -32.2610    10.8480     4.9290 sh         1 YC5      -0.179800
      8 F1         -31.6230     5.7430     4.7810 f          1 YC5      -0.187000
      9 N1         -30.6070     5.6520     7.4270 nv         1 YC5      -1.055000
     10 H1         -31.1750    10.1760     7.5550 ha         1 YC5       0.116000
     11 H2         -30.4950     8.0230     8.5730 ha         1 YC5       0.118000
     12 H3         -32.2730     8.1200     3.9190 ha         1 YC5       0.142000
     13 H4         -31.9590    11.6250     5.9960 hs         1 YC5       0.205800
     14 H5         -30.3670     5.6240     8.4170 hn         1 YC5       0.452500
     15 H6         -30.7810     4.7660     6.9540 hn         1 YC5       0.452500
@<TRIPOS>BOND
     1     1     2 ar  
     2     1     6 ar  
     3     1    10 1   
     4     2     3 ar  
     5     2    11 1   
     6     3     4 ar  
     7     3     9 1   
     8     4     5 ar  
     9     4     8 1   
    10     5     6 ar  
    11     5    12 1   
    12     6     7 1   
    13     7    13 1   
    14     9    14 1   
    15     9    15 1   
@<TRIPOS>SUBSTRUCTURE
     1 YC5         1 TEMP              0 ****  ****    0 ROOT
