@<TRIPOS>MOLECULE
YC8
   36    37     1     0     0
SMALL
No Charge or Current Charge


@<TRIPOS>ATOM
      1 C1          -3.4720     1.6910    -0.7420 c          1 YC8       0.725600
      2 N1          -4.0960    -2.6100    -0.2570 nb         1 YC8      -0.679000
      3 O1          -2.3420     2.1550    -0.7770 o          1 YC8      -0.706000
      4 C2          -3.6490     0.1910    -0.5530 ca         1 YC8      -0.173600
      5 O2          -4.4760     2.3760    -0.8720 o          1 YC8      -0.706000
      6 C3          -4.8340    -0.4340    -1.0120 ca         1 YC8      -0.112000
      7 O3          -0.4690    -1.6780     1.8830 o          1 YC8      -0.638100
      8 C4          -5.0130    -1.8160    -0.8450 ca         1 YC8       0.260900
      9 C5          -2.9580    -2.0300     0.1930 ca         1 YC8       0.267900
     10 C6          -2.6830    -0.6420     0.0800 ca         1 YC8      -0.046000
     11 C7          -0.4580    -0.5640     1.3710 c          1 YC8       0.605100
     12 C8           0.6910     0.4220     1.6210 c3         1 YC8      -0.161400
     13 C9           1.9660     0.0220     0.8400 c3         1 YC8      -0.061400
     14 C10          3.1450     0.9930     1.0650 c3         1 YC8      -0.038100
     15 C11          4.3850     0.5770     0.2860 ca         1 YC8      -0.065300
     16 C12          5.3320    -0.2880     0.8670 ca         1 YC8      -0.107000
     17 C13          6.4750    -0.6760     0.1460 ca         1 YC8      -0.113500
     18 C14          6.6760    -0.2020    -1.1610 ca         1 YC8      -0.121000
     19 C15          5.7340     0.6600    -1.7470 ca         1 YC8      -0.113500
     20 C16          4.5910     1.0480    -1.0260 ca         1 YC8      -0.107000
     21 HN2         -1.3270     0.8860     0.2560 hn         1 YC8       0.228000
     22 H3          -5.6150     0.1420    -1.5020 ha         1 YC8       0.134000
     23 H4          -5.9210    -2.3040    -1.1980 h4         1 YC8      -0.006900
     24 H5          -2.2480    -2.7190     0.6450 h4         1 YC8       0.032100
     25 H8           0.3950     1.4310     1.3060 hc         1 YC8       0.062200
     26 H8A          0.9250     0.4220     2.6920 hc         1 YC8       0.062200
     27 H9           2.2740    -0.9880     1.1390 hc         1 YC8       0.052700
     28 H9A          1.7370    -0.0190    -0.2330 hc         1 YC8       0.052700
     29 H10          2.8390     2.0060     0.7720 hc         1 YC8       0.045700
     30 H10A         3.3730     1.0410     2.1370 hc         1 YC8       0.045700
     31 H12          5.1820    -0.6620     1.8780 ha         1 YC8       0.112500
     32 H13          7.2030    -1.3450     0.6000 ha         1 YC8       0.105000
     33 H14          7.5600    -0.5030    -1.7190 ha         1 YC8       0.103000
     34 H15          5.8880     1.0260    -2.7590 ha         1 YC8       0.105000
     35 H16          3.8650     1.7140    -1.4870 ha         1 YC8       0.112500
     36 N2          -1.4740    -0.0680     0.5690 ns         1 YC8      -0.157000
@<TRIPOS>BOND
     1     1     3 1   
     2     1     4 1   
     3     1     5 1   
     4     2     8 ar  
     5     2     9 ar  
     6     4     6 ar  
     7     4    10 ar  
     8     6     8 ar  
     9     6    22 1   
    10     7    11 2   
    11     8    23 1   
    12     9    10 ar  
    13     9    24 1   
    14    10    36 1   
    15    11    12 1   
    16    11    36 1   
    17    12    13 1   
    18    12    25 1   
    19    12    26 1   
    20    13    14 1   
    21    13    27 1   
    22    13    28 1   
    23    14    15 1   
    24    14    29 1   
    25    14    30 1   
    26    15    16 ar  
    27    15    20 ar  
    28    16    17 ar  
    29    16    31 1   
    30    17    18 ar  
    31    17    32 1   
    32    18    19 ar  
    33    18    33 1   
    34    19    20 ar  
    35    19    34 1   
    36    20    35 1   
    37    21    36 1   
@<TRIPOS>SUBSTRUCTURE
     1 YC8         1 TEMP              0 ****  ****    0 ROOT
