@<TRIPOS>MOLECULE
YC8
   36    37     1     0     0
SMALL
abcg2


@<TRIPOS>ATOM
      1 C1          -3.9020     1.7230     0.0060 c          1 YC8       0.725600
      2 N1          -4.1920    -2.5810    -0.3020 nb         1 YC8      -0.679000
      3 O1          -2.7800     2.2520     0.2060 o          1 YC8      -0.706000
      4 C2          -3.9500     0.1970    -0.0930 ca         1 YC8      -0.173600
      5 O2          -4.9760     2.3220    -0.1210 o          1 YC8      -0.706000
      6 C3          -5.1710    -0.4170    -0.3300 ca         1 YC8      -0.112000
      7 O3          -0.1470    -1.7980     0.4480 o          1 YC8      -0.638100
      8 C4          -5.2520    -1.7940    -0.4280 ca         1 YC8       0.260900
      9 C5          -3.0120    -2.0230    -0.0750 ca         1 YC8       0.267900
     10 C6          -2.8220    -0.6380     0.0400 ca         1 YC8      -0.046000
     11 C7          -0.3750    -0.5990     0.4740 c          1 YC8       0.605100
     12 C8           0.7060     0.4200     0.7730 c3         1 YC8      -0.161400
     13 C9           2.0950    -0.0250     0.3410 c3         1 YC8      -0.061400
     14 C10          3.1500     1.0340     0.6660 c3         1 YC8      -0.038100
     15 C11          4.5230     0.6060     0.2310 ca         1 YC8      -0.065300
     16 C12          5.3480    -0.1240     1.0850 ca         1 YC8      -0.107000
     17 C13          6.5980    -0.5620     0.6680 ca         1 YC8      -0.113500
     18 C14          7.0450    -0.2770    -0.6160 ca         1 YC8      -0.121000
     19 C15          6.2330     0.4510    -1.4760 ca         1 YC8      -0.113500
     20 C16          4.9840     0.8870    -1.0530 ca         1 YC8      -0.107000
     21 HN2         -1.6970     0.9870     0.3070 hn         1 YC8       0.228000
     22 H3          -6.0610     0.1870    -0.4410 ha         1 YC8       0.134000
     23 H4          -6.2040    -2.2790    -0.6160 h4         1 YC8      -0.006900
     24 H5          -2.1740    -2.6960     0.0190 h4         1 YC8       0.032100
     25 H8           0.4570     1.3790     0.3110 hc         1 YC8       0.062200
     26 H8A          0.6940     0.5990     1.8540 hc         1 YC8       0.062200
     27 H9           2.3610    -0.9630     0.8330 hc         1 YC8       0.052700
     28 H9A          2.1040    -0.2230    -0.7350 hc         1 YC8       0.052700
     29 H10          2.8820     1.9740     0.1770 hc         1 YC8       0.045700
     30 H10A         3.1440     1.2290     1.7420 hc         1 YC8       0.045700
     31 H12          5.0100    -0.3500     2.0900 ha         1 YC8       0.112500
     32 H13          7.2240    -1.1260     1.3470 ha         1 YC8       0.105000
     33 H14          8.0190    -0.6170    -0.9410 ha         1 YC8       0.103000
     34 H15          6.5720     0.6830    -2.4780 ha         1 YC8       0.105000
     35 H16          4.3590     1.4590    -1.7300 ha         1 YC8       0.112500
     36 N2          -1.5910    -0.0410     0.2720 ns         1 YC8      -0.157000
@<TRIPOS>BOND
     1     1     3 1   
     2     1     4 1   
     3     1     5 1   
     4     2     8 ar  
     5     2     9 ar  
     6     4     6 ar  
     7     4    10 ar  
     8     6     8 ar  
     9     6    22 1   
    10     7    11 2   
    11     8    23 1   
    12     9    10 ar  
    13     9    24 1   
    14    10    36 1   
    15    11    12 1   
    16    11    36 1   
    17    12    13 1   
    18    12    25 1   
    19    12    26 1   
    20    13    14 1   
    21    13    27 1   
    22    13    28 1   
    23    14    15 1   
    24    14    29 1   
    25    14    30 1   
    26    15    16 ar  
    27    15    20 ar  
    28    16    17 ar  
    29    16    31 1   
    30    17    18 ar  
    31    17    32 1   
    32    18    19 ar  
    33    18    33 1   
    34    19    20 ar  
    35    19    34 1   
    36    20    35 1   
    37    21    36 1   
@<TRIPOS>SUBSTRUCTURE
     1 YC8         1 TEMP              0 ****  ****    0 ROOT
