@<TRIPOS>MOLECULE
YCB
   65    68     1     0     0
SMALL
No Charge or Current Charge


@<TRIPOS>ATOM
      1 C2          14.6840   -23.6890     2.2980 ca         1 YCB       0.438900
      2 C3          14.6470   -23.2820     0.9450 ca         1 YCB      -0.229000
      3 C11         14.6750   -21.4390    -0.6400 ca         1 YCB      -0.125000
      4 C12         14.5710   -22.3460    -1.7070 ca         1 YCB      -0.060000
      5 C14         14.3920   -24.7080    -2.6140 cp         1 YCB      -0.022000
      6 C15         14.3200   -25.5760     4.0070 c3         1 YCB       0.237800
      7 C17         16.5990   -21.2470     5.6940 c3         1 YCB      -0.102400
      8 C18         12.8320   -25.3520     4.4140 c6         1 YCB      -0.089700
      9 C19         10.3730   -25.9150     3.9570 c6         1 YCB       0.161300
     10 C20         11.1000   -25.5740     6.2900 c6         1 YCB       0.161300
     11 C21         15.1490   -20.8040     5.3970 c3         1 YCB       0.250800
     12 C22         17.6630   -20.1510     5.4470 c3         1 YCB       0.161800
     13 C23         13.6420   -24.3890    -3.7750 ca         1 YCB      -0.105500
     14 C24         15.0340   -25.9720    -2.5690 ca         1 YCB      -0.105500
     15 C25         18.3880   -17.8220     5.7660 c3         1 YCB       0.149600
     16 C26         17.5800   -19.0960     7.7010 c3         1 YCB       0.149600
     17 C27         12.5850   -25.7640     5.8910 c6         1 YCB      -0.071900
     18 C28         11.8370   -26.1140     3.4910 c6         1 YCB      -0.071900
     19 C29         14.9300   -26.8790    -3.6380 ca         1 YCB      -0.109500
     20 C30         13.5360   -25.2960    -4.8440 ca         1 YCB      -0.109500
     21 N1          14.7800   -22.8030     3.2980 nb         1 YCB      -0.342000
     22 C4          14.8390   -21.5130     2.9480 ca         1 YCB       0.430900
     23 N5          14.8090   -21.0130     1.7050 nb         1 YCB      -0.302000
     24 C6          14.7130   -21.8930     0.6890 ca         1 YCB       0.110000
     25 C7          14.5420   -24.1920    -0.1320 ca         1 YCB      -0.040000
     26 N8          14.6280   -25.0310     2.6710 nu         1 YCB      -0.927100
     27 C9          14.5030   -23.7410    -1.4750 cp         1 YCB      -0.081000
     28 N10         10.1980   -26.3120     5.3750 n7         1 YCB      -0.864400
     29 N13         14.9260   -20.5710     3.9570 nu         1 YCB      -0.913100
     30 N16         17.4890   -18.9010     6.2340 n3         1 YCB      -0.721600
     31 C31         14.1810   -26.5410    -4.7760 ca         1 YCB      -0.111000
     32 H1          14.7280   -20.3730    -0.8470 ha         1 YCB       0.131000
     33 H2          14.5570   -21.9620    -2.7240 ha         1 YCB       0.114000
     34 H3          14.5240   -26.6560     4.0260 h1         1 YCB       0.056200
     35 H4          14.9720   -25.1100     4.7600 h1         1 YCB       0.056200
     36 H5          16.6580   -21.5840     6.7350 hc         1 YCB       0.049200
     37 H6          16.8470   -22.1230     5.0840 hc         1 YCB       0.049200
     38 H7          12.6350   -24.2740     4.3270 hc         1 YCB       0.066700
     39 H8          10.0920   -24.8580     3.8370 h1         1 YCB       0.030200
     40 H9           9.7000   -26.5120     3.3230 h1         1 YCB       0.030200
     41 H10         10.9470   -25.9260     7.3210 h1         1 YCB       0.030200
     42 H11         10.8500   -24.5020     6.2640 h1         1 YCB       0.030200
     43 H12         14.9360   -19.8860     5.9620 h1         1 YCB       0.054700
     44 H13         14.4550   -21.5740     5.7620 h1         1 YCB       0.054700
     45 H14         18.6520   -20.5810     5.6550 h1         1 YCB       0.033700
     46 H15         17.6470   -19.9110     4.3750 h1         1 YCB       0.033700
     47 H16         13.1240   -23.4360    -3.8420 ha         1 YCB       0.111500
     48 H17         15.6310   -26.2480    -1.7030 ha         1 YCB       0.111500
     49 H18         18.1850   -16.8860     6.3030 h1         1 YCB       0.029867
     50 H19         19.4410   -18.0920     5.9300 h1         1 YCB       0.029867
     51 H20         18.2440   -17.6330     4.6940 h1         1 YCB       0.029867
     52 H21         17.4500   -18.1400     8.2270 h1         1 YCB       0.029867
     53 H22         16.7980   -19.7760     8.0620 h1         1 YCB       0.029867
     54 H23         18.5580   -19.5100     7.9810 h1         1 YCB       0.029867
     55 H24         12.8710   -26.8150     6.0410 hc         1 YCB       0.044700
     56 H25         13.2220   -25.1690     6.5610 hc         1 YCB       0.044700
     57 H26         11.9340   -25.7660     2.4540 hc         1 YCB       0.044700
     58 H27         12.0760   -27.1860     3.4850 hc         1 YCB       0.044700
     59 H28         15.4330   -27.8420    -3.5850 ha         1 YCB       0.111500
     60 H29         12.9520   -25.0330    -5.7240 ha         1 YCB       0.111500
     61 H30         14.4730   -25.2590     0.0570 ha         1 YCB       0.100000
     62 H31         14.6010   -25.6890     1.8960 hn         1 YCB       0.497000
     63 H32          9.2250   -26.1310     5.6520 hn         1 YCB       0.410000
     64 H34         14.9940   -19.6080     3.6300 hn         1 YCB       0.508000
     65 H36         14.1000   -27.2430    -5.6030 ha         1 YCB       0.112000
@<TRIPOS>BOND
     1     1     2 ar  
     2     1    21 ar  
     3     1    26 1   
     4     2    24 ar  
     5     2    25 ar  
     6     3     4 ar  
     7     3    24 ar  
     8     3    32 1   
     9     4    27 ar  
    10     4    33 1   
    11     5    13 ar  
    12     5    14 ar  
    13     5    27 1   
    14     6     8 1   
    15     6    26 1   
    16     6    34 1   
    17     6    35 1   
    18     7    11 1   
    19     7    12 1   
    20     7    36 1   
    21     7    37 1   
    22     8    17 1   
    23     8    18 1   
    24     8    38 1   
    25     9    18 1   
    26     9    28 1   
    27     9    39 1   
    28     9    40 1   
    29    10    17 1   
    30    10    28 1   
    31    10    41 1   
    32    10    42 1   
    33    11    29 1   
    34    11    43 1   
    35    11    44 1   
    36    12    30 1   
    37    12    45 1   
    38    12    46 1   
    39    13    20 ar  
    40    13    47 1   
    41    14    19 ar  
    42    14    48 1   
    43    15    30 1   
    44    15    49 1   
    45    15    50 1   
    46    15    51 1   
    47    16    30 1   
    48    16    52 1   
    49    16    53 1   
    50    16    54 1   
    51    17    55 1   
    52    17    56 1   
    53    18    57 1   
    54    18    58 1   
    55    19    31 ar  
    56    19    59 1   
    57    20    31 ar  
    58    20    60 1   
    59    21    22 ar  
    60    22    23 ar  
    61    22    29 1   
    62    23    24 ar  
    63    25    27 ar  
    64    25    61 1   
    65    26    62 1   
    66    28    63 1   
    67    29    64 1   
    68    31    65 1   
@<TRIPOS>SUBSTRUCTURE
     1 YCB         1 TEMP              0 ****  ****    0 ROOT
