@<TRIPOS>MOLECULE
YCB
   65    68     1     0     0
SMALL
abcg2


@<TRIPOS>ATOM
      1 C2          14.5900   -23.6170     2.3050 ca         1 YCB       0.438900
      2 C3          14.7020   -23.2220     0.9180 ca         1 YCB      -0.229000
      3 C11         15.0560   -21.3980    -0.6270 ca         1 YCB      -0.125000
      4 C12         14.9320   -22.2680    -1.6770 ca         1 YCB      -0.060000
      5 C14         14.5200   -24.5600    -2.6180 cp         1 YCB      -0.022000
      6 C15         14.2480   -25.3630     4.0030 c3         1 YCB       0.237800
      7 C17         16.3040   -21.4430     5.8470 c3         1 YCB      -0.102400
      8 C18         12.8140   -25.2520     4.5160 c6         1 YCB      -0.089700
      9 C19         10.4360   -26.0140     4.2850 c6         1 YCB       0.161300
     10 C20         11.3050   -25.6160     6.4900 c6         1 YCB       0.161300
     11 C21         14.9600   -20.9100     5.3550 c3         1 YCB       0.250800
     12 C22         17.4820   -20.5450     5.4950 c3         1 YCB       0.161800
     13 C23         13.8750   -24.1380    -3.7840 ca         1 YCB      -0.105500
     14 C24         14.9950   -25.8720    -2.5660 ca         1 YCB      -0.105500
     15 C25         18.3190   -18.3180     5.2830 c3         1 YCB       0.149600
     16 C26         17.2320   -18.9710     7.2990 c3         1 YCB       0.149600
     17 C27         12.7390   -25.6670     5.9830 c6         1 YCB      -0.071900
     18 C28         11.8360   -26.0870     3.6930 c6         1 YCB      -0.071900
     19 C29         14.8210   -26.7360    -3.6380 ca         1 YCB      -0.109500
     20 C30         13.7060   -24.9990    -4.8580 ca         1 YCB      -0.109500
     21 N1          14.6680   -22.7250     3.2680 nb         1 YCB      -0.342000
     22 C4          14.8870   -21.4380     2.9350 ca         1 YCB       0.430900
     23 N5          15.0380   -20.9550     1.7150 nb         1 YCB      -0.302000
     24 C6          14.9350   -21.8450     0.7070 ca         1 YCB       0.110000
     25 C7          14.5760   -24.0930    -0.1730 ca         1 YCB      -0.040000
     26 N8          14.4220   -24.9000     2.6430 nu         1 YCB      -0.927100
     27 C9          14.6810   -23.6430    -1.4740 cp         1 YCB      -0.081000
     28 N10         10.4580   -26.4600     5.6660 n7         1 YCB      -0.864400
     29 N13         14.9350   -20.5580     3.9560 nu         1 YCB      -0.913100
     30 N16         17.2940   -19.1550     5.8660 n3         1 YCB      -0.721600
     31 C31         14.1760   -26.3040    -4.7900 ca         1 YCB      -0.111000
     32 H1          15.2520   -20.3480    -0.8040 ha         1 YCB       0.131000
     33 H2          15.0430   -21.8910    -2.6860 ha         1 YCB       0.114000
     34 H3          14.5660   -26.4080     4.0300 h1         1 YCB       0.056200
     35 H4          14.9190   -24.8050     4.6570 h1         1 YCB       0.056200
     36 H5          16.2350   -21.5990     6.9270 hc         1 YCB       0.049200
     37 H6          16.4910   -22.4280     5.4130 hc         1 YCB       0.049200
     38 H7          12.5080   -24.2000     4.4470 hc         1 YCB       0.066700
     39 H8          10.0660   -24.9790     4.1830 h1         1 YCB       0.030200
     40 H9           9.7540   -26.6510     3.7190 h1         1 YCB       0.030200
     41 H10         11.2600   -25.9700     7.5220 h1         1 YCB       0.030200
     42 H11         10.9710   -24.5650     6.4960 h1         1 YCB       0.030200
     43 H12         14.6940   -20.0090     5.9080 h1         1 YCB       0.054700
     44 H13         14.1800   -21.6440     5.5590 h1         1 YCB       0.054700
     45 H14         18.3990   -20.9660     5.9440 h1         1 YCB       0.033700
     46 H15         17.6330   -20.5810     4.4120 h1         1 YCB       0.033700
     47 H16         13.4800   -23.1310    -3.8480 ha         1 YCB       0.111500
     48 H17         15.5230   -26.2200    -1.6870 ha         1 YCB       0.111500
     49 H18         18.1300   -17.2710     5.5240 h1         1 YCB       0.029867
     50 H19         19.3340   -18.5620     5.6350 h1         1 YCB       0.029867
     51 H20         18.3120   -18.4160     4.1970 h1         1 YCB       0.029867
     52 H21         17.0760   -17.9160     7.5310 h1         1 YCB       0.029867
     53 H22         16.3970   -19.5240     7.7290 h1         1 YCB       0.029867
     54 H23         18.1500   -19.2950     7.8150 h1         1 YCB       0.029867
     55 H24         13.1240   -26.6870     6.0960 hc         1 YCB       0.044700
     56 H25         13.3700   -25.0160     6.5940 hc         1 YCB       0.044700
     57 H26         11.8110   -25.7450     2.6560 hc         1 YCB       0.044700
     58 H27         12.1690   -27.1310     3.6830 hc         1 YCB       0.044700
     59 H28         15.2010   -27.7480    -3.5760 ha         1 YCB       0.111500
     60 H29         13.1960   -24.6510    -5.7470 ha         1 YCB       0.111500
     61 H30         14.3580   -25.1420    -0.0110 ha         1 YCB       0.100000
     62 H31         14.3480   -25.5900     1.9160 hn         1 YCB       0.497000
     63 H32          9.5170   -26.4570     6.0370 hn         1 YCB       0.410000
     64 H34         15.2080   -19.6200     3.7100 hn         1 YCB       0.508000
     65 H36         14.0430   -26.9770    -5.6260 ha         1 YCB       0.112000
@<TRIPOS>BOND
     1     1     2 ar  
     2     1    21 ar  
     3     1    26 1   
     4     2    24 ar  
     5     2    25 ar  
     6     3     4 ar  
     7     3    24 ar  
     8     3    32 1   
     9     4    27 ar  
    10     4    33 1   
    11     5    13 ar  
    12     5    14 ar  
    13     5    27 1   
    14     6     8 1   
    15     6    26 1   
    16     6    34 1   
    17     6    35 1   
    18     7    11 1   
    19     7    12 1   
    20     7    36 1   
    21     7    37 1   
    22     8    17 1   
    23     8    18 1   
    24     8    38 1   
    25     9    18 1   
    26     9    28 1   
    27     9    39 1   
    28     9    40 1   
    29    10    17 1   
    30    10    28 1   
    31    10    41 1   
    32    10    42 1   
    33    11    29 1   
    34    11    43 1   
    35    11    44 1   
    36    12    30 1   
    37    12    45 1   
    38    12    46 1   
    39    13    20 ar  
    40    13    47 1   
    41    14    19 ar  
    42    14    48 1   
    43    15    30 1   
    44    15    49 1   
    45    15    50 1   
    46    15    51 1   
    47    16    30 1   
    48    16    52 1   
    49    16    53 1   
    50    16    54 1   
    51    17    55 1   
    52    17    56 1   
    53    18    57 1   
    54    18    58 1   
    55    19    31 ar  
    56    19    59 1   
    57    20    31 ar  
    58    20    60 1   
    59    21    22 ar  
    60    22    23 ar  
    61    22    29 1   
    62    23    24 ar  
    63    25    27 ar  
    64    25    61 1   
    65    26    62 1   
    66    28    63 1   
    67    29    64 1   
    68    31    65 1   
@<TRIPOS>SUBSTRUCTURE
     1 YCB         1 TEMP              0 ****  ****    0 ROOT
