@<TRIPOS>MOLECULE
YCE
   33    34     1     0     0
SMALL
No Charge or Current Charge


@<TRIPOS>ATOM
      1 C10         -1.3200   106.6090   104.7890 cc         1 YCE      -0.166300
      2 N12          0.8750   107.7180   104.8040 n7         1 YCE      -0.876400
      3 C13          1.3600   107.2530   103.4700 c3         1 YCE       0.099800
      4 C15          2.0710   108.0930   101.1280 c3         1 YCE      -0.387400
      5 C02         -2.4830   103.4230   106.1790 c          1 YCE       0.596600
      6 C04         -1.2410   104.6480   107.8530 cd         1 YCE       0.439800
      7 C06         -1.4570   105.6440   105.8090 cc         1 YCE       0.115400
      8 C07         -2.1750   104.5870   105.3470 cd         1 YCE      -0.302600
      9 C09         -1.9730   106.1320   103.6750 cd         1 YCE      -0.088000
     10 C11         -0.5860   107.9150   104.9470 c3         1 YCE       0.238100
     11 C14          1.1950   108.3440   102.3680 c3         1 YCE       0.216300
     12 N03         -1.9630   103.5580   107.4280 ns         1 YCE      -0.430400
     13 N05         -0.9610   105.7110   107.0910 nc         1 YCE      -0.562100
     14 N08         -2.5040   104.8770   104.0160 na         1 YCE      -0.081000
     15 O01         -3.1230   102.4480   105.8180 o          1 YCE      -0.591000
     16 O17          2.2210   108.3070    98.4470 o          1 YCE      -0.937833
     17 O18          1.4030   110.2790    99.6270 o          1 YCE      -0.937833
     18 O19         -0.0210   108.2960    99.4080 o          1 YCE      -0.937833
     19 O20          1.5520   109.5780   102.9830 oh         1 YCE      -0.648000
     20 H121         1.1250   107.0010   105.4950 hn         1 YCE       0.389000
     21 H131         0.8440   106.3360   103.1560 h1         1 YCE       0.028200
     22 H132         2.4270   107.0040   103.5480 h1         1 YCE       0.028200
     23 H152         2.1470   107.0130   100.9560 hc         1 YCE       0.014700
     24 H151         3.0900   108.4660   101.2810 hc         1 YCE       0.014700
     25 H041        -0.9120   104.5680   108.8820 h5         1 YCE       0.030800
     26 H091        -2.0980   106.5740   102.6920 h4         1 YCE       0.200000
     27 H112        -0.9640   108.6340   104.2070 h1         1 YCE       0.055700
     28 H111        -0.8160   108.3280   105.9390 h1         1 YCE       0.055700
     29 H141         0.1360   108.3610   102.0760 h1         1 YCE       0.040700
     30 H031        -2.1340   102.7920   108.0620 hn         1 YCE       0.311500
     31 H081        -3.0410   104.2760   103.3950 hn         1 YCE       0.366000
     32 H201         1.4300   109.3520   103.9370 ho         1 YCE       0.402000
     33 P16          1.3760   108.7890    99.5770 p5         1 YCE       1.304500
@<TRIPOS>BOND
     1     1     7 1   
     2     1     9 2   
     3     1    10 1   
     4     2     3 1   
     5     2    10 1   
     6     2    20 1   
     7     3    11 1   
     8     3    21 1   
     9     3    22 1   
    10     4    11 1   
    11     4    23 1   
    12     4    24 1   
    13     4    33 1   
    14     5     8 1   
    15     5    12 1   
    16     5    15 2   
    17     6    12 1   
    18     6    13 2   
    19     6    25 1   
    20     7     8 2   
    21     7    13 1   
    22     8    14 1   
    23     9    14 1   
    24     9    26 1   
    25    10    27 1   
    26    10    28 1   
    27    11    19 1   
    28    11    29 1   
    29    12    30 1   
    30    14    31 1   
    31    16    33 1   
    32    17    33 1   
    33    18    33 1   
    34    19    32 1   
@<TRIPOS>SUBSTRUCTURE
     1 YCE         1 TEMP              0 ****  ****    0 ROOT
