@<TRIPOS>MOLECULE
YCE
   33    34     1     0     0
SMALL
abcg2


@<TRIPOS>ATOM
      1 C10         -1.3630   106.7560   104.8200 cc         1 YCE      -0.166300
      2 N12          0.7980   108.0300   104.9190 n7         1 YCE      -0.876400
      3 C13          1.3400   107.4170   103.7060 c3         1 YCE       0.099800
      4 C15          1.8770   107.8310   101.2690 c3         1 YCE      -0.387400
      5 C02         -2.3380   103.3960   105.8360 c          1 YCE       0.596600
      6 C04         -1.0900   104.4970   107.6420 cd         1 YCE       0.439800
      7 C06         -1.4040   105.6850   105.7570 cc         1 YCE       0.115400
      8 C07         -2.1060   104.6270   105.1620 cd         1 YCE      -0.302600
      9 C09         -2.0330   106.3020   103.7000 cd         1 YCE      -0.088000
     10 C11         -0.6740   108.0760   104.9930 c3         1 YCE       0.238100
     11 C14          1.1830   108.3600   102.5140 c3         1 YCE       0.216300
     12 N03         -1.7680   103.4360   107.1130 ns         1 YCE      -0.430400
     13 N05         -0.8810   105.6160   107.0260 nc         1 YCE      -0.562100
     14 N08         -2.4810   105.0260   103.9090 na         1 YCE      -0.081000
     15 O01         -2.9390   102.3990   105.4310 o          1 YCE      -0.591000
     16 O17          2.0160   107.5700    98.6030 o          1 YCE      -0.937833
     17 O18          1.6290   109.9310    99.5140 o          1 YCE      -0.937833
     18 O19         -0.2490   108.1930    99.6270 o          1 YCE      -0.937833
     19 O20          1.7080   109.6470   102.8820 oh         1 YCE      -0.648000
     20 H121         1.1590   107.5530   105.7360 hn         1 YCE       0.389000
     21 H131         0.8650   106.4580   103.4620 h1         1 YCE       0.028200
     22 H132         2.4030   107.2310   103.8760 h1         1 YCE       0.028200
     23 H152         1.7410   106.7440   101.2460 hc         1 YCE       0.014700
     24 H151         2.9530   108.0100   101.3590 hc         1 YCE       0.014700
     25 H041        -0.7170   104.3470   108.6480 h5         1 YCE       0.030800
     26 H091        -2.2130   106.8020   102.7620 h4         1 YCE       0.200000
     27 H112        -1.0390   108.7720   104.2370 h1         1 YCE       0.055700
     28 H111        -0.9280   108.5020   105.9660 h1         1 YCE       0.055700
     29 H141         0.1150   108.4700   102.2950 h1         1 YCE       0.040700
     30 H031        -1.8760   102.6030   107.6770 hn         1 YCE       0.311500
     31 H081        -2.9960   104.4690   103.2460 hn         1 YCE       0.366000
     32 H201         1.5210   109.7160   103.8350 ho         1 YCE       0.402000
     33 P16          1.2680   108.4440    99.6210 p5         1 YCE       1.304500
@<TRIPOS>BOND
     1     1     7 1   
     2     1     9 2   
     3     1    10 1   
     4     2     3 1   
     5     2    10 1   
     6     2    20 1   
     7     3    11 1   
     8     3    21 1   
     9     3    22 1   
    10     4    11 1   
    11     4    23 1   
    12     4    24 1   
    13     4    33 1   
    14     5     8 1   
    15     5    12 1   
    16     5    15 2   
    17     6    12 1   
    18     6    13 2   
    19     6    25 1   
    20     7     8 2   
    21     7    13 1   
    22     8    14 1   
    23     9    14 1   
    24     9    26 1   
    25    10    27 1   
    26    10    28 1   
    27    11    19 1   
    28    11    29 1   
    29    12    30 1   
    30    14    31 1   
    31    16    33 1   
    32    17    33 1   
    33    18    33 1   
    34    19    32 1   
@<TRIPOS>SUBSTRUCTURE
     1 YCE         1 TEMP              0 ****  ****    0 ROOT
