@<TRIPOS>MOLECULE
YCF
   56    57     1     0     0
SMALL
abcg2


@<TRIPOS>ATOM
      1 NAA         46.0160    23.0330   -13.1550 n2         1 YCF      -0.806100
      2 NAB         47.3310    23.0560   -15.1010 nu         1 YCF      -0.630900
      3 NAC         47.1500    21.0940   -13.9340 nu         1 YCF      -0.635000
      4 NAD         46.8710    20.3940   -12.8040 n2         1 YCF      -0.386400
      5 NAE         45.9020    16.5580    -7.8410 ns         1 YCF      -0.162000
      6 NAF         45.8550    15.2930    -5.9400 ns         1 YCF      -0.162000
      7 NAG         46.6460    12.0230    -0.5500 n2         1 YCF      -0.386400
      8 NAH         46.8500    11.1900     0.4990 nu         1 YCF      -0.635000
      9 NAI         46.2600    12.8480     2.0110 n2         1 YCF      -0.422700
     10 NAJ         46.9150    10.7070     2.7670 nv         1 YCF      -1.042200
     11 CAK         46.7560    22.4210   -13.9940 c2         1 YCF       0.779600
     12 CAL         47.3260    19.1960   -12.6870 ce         1 YCF       0.386400
     13 CAM         48.1700    18.5400   -13.7440 c3         1 YCF      -0.167900
     14 CAN         46.9690    18.4740   -11.4500 ca         1 YCF      -0.147400
     15 CAO         47.7370    17.4100   -10.9690 ca         1 YCF      -0.054500
     16 CAP         47.4270    16.7530    -9.7830 ca         1 YCF      -0.157250
     17 CAQ         46.3120    17.1480    -9.0400 ca         1 YCF       0.004000
     18 CAR         45.5260    18.2070    -9.5210 ca         1 YCF      -0.157250
     19 CAS         45.8490    18.8540   -10.6950 ca         1 YCF      -0.054500
     20 CAT         46.5290    15.5770    -7.1060 c          1 YCF       0.671100
     21 CAU         46.1860    14.3620    -4.9490 ca         1 YCF       0.004000
     22 CAV         47.1610    13.3710    -5.0880 ca         1 YCF      -0.157250
     23 CAW         47.3940    12.4800    -4.0480 ca         1 YCF      -0.054500
     24 CAX         46.6860    12.5410    -2.8440 ca         1 YCF      -0.147400
     25 CAY         45.7050    13.5370    -2.7240 ca         1 YCF      -0.054500
     26 CAZ         45.4590    14.4260    -3.7500 ca         1 YCF      -0.157250
     27 CBA         46.9630    11.6140    -1.7290 ce         1 YCF       0.386400
     28 CBB         47.5710    10.2630    -1.9870 c3         1 YCF      -0.167900
     29 CBC         46.6810    11.6450     1.7940 c2         1 YCF       0.779600
     30 OBD         47.5660    15.0230    -7.4490 o          1 YCF      -0.604100
     31 OBE         46.6570    24.2200   -15.5170 oh         1 YCF      -0.419300
     32 OBF         46.1160    13.0350     3.4320 oh         1 YCF      -0.554000
     33 HNAA        45.7830    22.3910   -12.4000 hn         1 YCF       0.409400
     34 HNAB        47.4280    22.4530   -15.9110 hn         1 YCF       0.453000
     35 HNAC        47.8790    20.7770   -14.5600 hn         1 YCF       0.478000
     36 HNAE        45.0490    16.9390    -7.4610 hn         1 YCF       0.147500
     37 HNAF        45.0560    15.8690    -5.7210 hn         1 YCF       0.147500
     38 HNAH        47.3830    10.3390     0.3800 hn         1 YCF       0.478000
     39 HNAJ        47.0660    11.0940     3.6870 hn         1 YCF       0.471000
     40 HNAD        47.5380     9.9500     2.5310 hn         1 YCF       0.471000
     41 HAM         48.3420    17.4890   -13.5350 hc         1 YCF       0.052033
     42 HAMA        47.6720    18.6100   -14.7160 hc         1 YCF       0.052033
     43 HAMB        49.1420    19.0340   -13.8380 hc         1 YCF       0.052033
     44 HAO         48.6140    17.0850   -11.5100 ha         1 YCF       0.124250
     45 HAP         48.0460    15.9430    -9.4370 ha         1 YCF       0.131250
     46 HAR         44.6510    18.5150    -8.9610 ha         1 YCF       0.131250
     47 HAS         45.2250    19.6630   -11.0460 ha         1 YCF       0.124250
     48 HAV         47.7310    13.3000    -5.9980 ha         1 YCF       0.131250
     49 HAW         48.1640    11.7330    -4.1870 ha         1 YCF       0.124250
     50 HAY         45.1280    13.6040    -1.8130 ha         1 YCF       0.124250
     51 HAZ         44.6890    15.1810    -3.6360 ha         1 YCF       0.131250
     52 HBB         47.6780    10.0590    -3.0480 hc         1 YCF       0.052033
     53 HBBA        48.5580    10.1760    -1.5210 hc         1 YCF       0.052033
     54 HBBB        46.9380     9.4800    -1.5600 hc         1 YCF       0.052033
     55 HOBE        47.2440    24.9440   -15.2600 ho         1 YCF       0.465000
     56 HOBF        45.9250    13.9780     3.4960 ho         1 YCF       0.462000
@<TRIPOS>BOND
     1     1    11 2   
     2     1    33 1   
     3     2    11 1   
     4     2    31 1   
     5     2    34 1   
     6     3     4 1   
     7     3    11 1   
     8     3    35 1   
     9     4    12 2   
    10     5    17 1   
    11     5    20 1   
    12     5    36 1   
    13     6    20 1   
    14     6    21 1   
    15     6    37 1   
    16     7     8 1   
    17     7    27 2   
    18     8    29 1   
    19     8    38 1   
    20     9    29 2   
    21     9    32 1   
    22    10    29 1   
    23    10    39 1   
    24    10    40 1   
    25    12    13 1   
    26    12    14 1   
    27    13    41 1   
    28    13    42 1   
    29    13    43 1   
    30    14    15 ar  
    31    14    19 ar  
    32    15    16 ar  
    33    15    44 1   
    34    16    17 ar  
    35    16    45 1   
    36    17    18 ar  
    37    18    19 ar  
    38    18    46 1   
    39    19    47 1   
    40    20    30 2   
    41    21    22 ar  
    42    21    26 ar  
    43    22    23 ar  
    44    22    48 1   
    45    23    24 ar  
    46    23    49 1   
    47    24    25 ar  
    48    24    27 1   
    49    25    26 ar  
    50    25    50 1   
    51    26    51 1   
    52    27    28 1   
    53    28    52 1   
    54    28    53 1   
    55    28    54 1   
    56    31    55 1   
    57    32    56 1   
@<TRIPOS>SUBSTRUCTURE
     1 YCF         1 TEMP              0 ****  ****    0 ROOT
