@<TRIPOS>MOLECULE
YCF
   56    57     1     0     0
SMALL
No Charge or Current Charge


@<TRIPOS>ATOM
      1 NAA         46.5110    23.3060   -13.1320 n2         1 YCF      -0.806100
      2 NAB         47.1320    23.1570   -15.3900 nu         1 YCF      -0.630900
      3 NAC         47.1440    21.2910   -14.0270 nu         1 YCF      -0.635000
      4 NAD         46.8330    20.5150   -12.9220 n2         1 YCF      -0.386400
      5 NAE         46.2430    16.6380    -7.7740 ns         1 YCF      -0.162000
      6 NAF         46.2130    15.3420    -5.8830 ns         1 YCF      -0.162000
      7 NAG         46.6290    11.9280    -0.3980 n2         1 YCF      -0.386400
      8 NAH         46.9040    11.1720     0.7270 nu         1 YCF      -0.635000
      9 NAI         45.6730    12.3930     2.3350 n2         1 YCF      -0.422700
     10 NAJ         47.1570    10.6060     2.8070 nv         1 YCF      -1.042200
     11 CAK         46.8650    22.6300   -14.1390 c2         1 YCF       0.779600
     12 CAL         47.1560    19.2510   -12.8350 ce         1 YCF       0.386400
     13 CAM         47.6380    18.4360   -14.0300 c3         1 YCF      -0.167900
     14 CAN         46.9100    18.5330   -11.5390 ca         1 YCF      -0.147400
     15 CAO         47.7640    17.4900   -11.1190 ca         1 YCF      -0.054500
     16 CAP         47.5610    16.8460    -9.8860 ca         1 YCF      -0.157250
     17 CAQ         46.5070    17.2390    -9.0350 ca         1 YCF       0.004000
     18 CAR         45.6770    18.3000    -9.4380 ca         1 YCF      -0.157250
     19 CAS         45.8770    18.9460   -10.6690 ca         1 YCF      -0.054500
     20 CAT         46.7900    15.5360    -7.1300 c          1 YCF       0.671100
     21 CAU         46.4400    14.3790    -4.8610 ca         1 YCF       0.004000
     22 CAV         47.4790    13.4250    -4.9000 ca         1 YCF      -0.157250
     23 CAW         47.6440    12.5050    -3.8500 ca         1 YCF      -0.054500
     24 CAX         46.7680    12.5040    -2.7430 ca         1 YCF      -0.147400
     25 CAY         45.7510    13.4830    -2.6930 ca         1 YCF      -0.054500
     26 CAZ         45.5880    14.4010    -3.7440 ca         1 YCF      -0.157250
     27 CBA         46.9740    11.5510    -1.6010 ce         1 YCF       0.386400
     28 CBB         47.4450    10.1350    -1.9200 c3         1 YCF      -0.167900
     29 CBC         46.5310    11.4840     2.0050 c2         1 YCF       0.779600
     30 OBD         47.6630    14.8200    -7.6070 o          1 YCF      -0.604100
     31 OBE         46.7230    24.5590   -15.6370 oh         1 YCF      -0.419300
     32 OBF         45.4010    12.5010     3.7330 oh         1 YCF      -0.554000
     33 HNAA        46.4570    22.6010   -12.3860 hn         1 YCF       0.409400
     34 HNAB        46.8060    22.5600   -16.1530 hn         1 YCF       0.453000
     35 HNAC        47.6800    20.9290   -14.8170 hn         1 YCF       0.478000
     36 HNAE        45.5190    17.1070    -7.2460 hn         1 YCF       0.147500
     37 HNAF        45.4940    16.0140    -5.6510 hn         1 YCF       0.147500
     38 HNAH        47.3670    10.2660     0.6910 hn         1 YCF       0.478000
     39 HNAJ        46.7810    10.7360     3.7390 hn         1 YCF       0.471000
     40 HNAD        48.1600    10.7390     2.7930 hn         1 YCF       0.471000
     41 HAM         47.6040    17.3580   -13.8360 hc         1 YCF       0.052033
     42 HAMA        47.0070    18.6120   -14.9100 hc         1 YCF       0.052033
     43 HAMB        48.6690    18.6950   -14.2940 hc         1 YCF       0.052033
     44 HAO         48.6000    17.1790   -11.7410 ha         1 YCF       0.124250
     45 HAP         48.2450    16.0510    -9.6070 ha         1 YCF       0.131250
     46 HAR         44.8650    18.6300    -8.7920 ha         1 YCF       0.131250
     47 HAS         45.2150    19.7630   -10.9500 ha         1 YCF       0.124250
     48 HAV         48.1790    13.3850    -5.7280 ha         1 YCF       0.131250
     49 HAW         48.4700    11.7980    -3.9000 ha         1 YCF       0.124250
     50 HAY         45.0740    13.5290    -1.8420 ha         1 YCF       0.124250
     51 HAZ         44.7880    15.1360    -3.6850 ha         1 YCF       0.131250
     52 HBB         47.4340     9.9270    -2.9950 hc         1 YCF       0.052033
     53 HBBA        48.4660     9.9680    -1.5590 hc         1 YCF       0.052033
     54 HBBB        46.7930     9.3860    -1.4540 hc         1 YCF       0.052033
     55 HOBE        47.4700    24.9980   -16.1170 ho         1 YCF       0.465000
     56 HOBF        44.7360    13.2300     3.8160 ho         1 YCF       0.462000
@<TRIPOS>BOND
     1     1    11 2   
     2     1    33 1   
     3     2    11 1   
     4     2    31 1   
     5     2    34 1   
     6     3     4 1   
     7     3    11 1   
     8     3    35 1   
     9     4    12 2   
    10     5    17 1   
    11     5    20 1   
    12     5    36 1   
    13     6    20 1   
    14     6    21 1   
    15     6    37 1   
    16     7     8 1   
    17     7    27 2   
    18     8    29 1   
    19     8    38 1   
    20     9    29 2   
    21     9    32 1   
    22    10    29 1   
    23    10    39 1   
    24    10    40 1   
    25    12    13 1   
    26    12    14 1   
    27    13    41 1   
    28    13    42 1   
    29    13    43 1   
    30    14    15 ar  
    31    14    19 ar  
    32    15    16 ar  
    33    15    44 1   
    34    16    17 ar  
    35    16    45 1   
    36    17    18 ar  
    37    18    19 ar  
    38    18    46 1   
    39    19    47 1   
    40    20    30 2   
    41    21    22 ar  
    42    21    26 ar  
    43    22    23 ar  
    44    22    48 1   
    45    23    24 ar  
    46    23    49 1   
    47    24    25 ar  
    48    24    27 1   
    49    25    26 ar  
    50    25    50 1   
    51    26    51 1   
    52    27    28 1   
    53    28    52 1   
    54    28    53 1   
    55    28    54 1   
    56    31    55 1   
    57    32    56 1   
@<TRIPOS>SUBSTRUCTURE
     1 YCF         1 TEMP              0 ****  ****    0 ROOT
