@<TRIPOS>MOLECULE
YCG
   41    43     1     0     0
SMALL
No Charge or Current Charge


@<TRIPOS>ATOM
      1 C4          17.8330     1.7420   -18.2960 ca         1 YCG      -0.122000
      2 C5          14.4360    -3.4870   -23.0040 ca         1 YCG      -0.120500
      3 C6          15.1080    -1.1830   -23.1590 ca         1 YCG      -0.120500
      4 C7          13.1000    -3.0510   -23.0110 ca         1 YCG       0.325400
      5 C8          13.7470    -0.8350   -23.1600 ca         1 YCG       0.325400
      6 C10         15.4870    -2.5440   -23.0580 ca         1 YCG      -0.084600
      7 C13         16.9320    -3.0240   -23.0700 c          1 YCG       0.638700
      8 C15         19.4000    -2.5570   -22.5210 c5         1 YCG       0.113400
      9 C17         19.9990    -2.7620   -23.9360 c3         1 YCG      -0.097100
     10 C1          20.0070     2.3500   -19.1770 ca         1 YCG      -0.120000
     11 C2          18.9610     2.5730   -18.2740 ca         1 YCG      -0.090000
     12 C3          19.9230     1.2970   -20.1010 ca         1 YCG      -0.094000
     13 C9          18.7980     0.4410   -20.1340 ca         1 YCG      -0.120900
     14 C11         17.7320     0.6770   -19.2160 ca         1 YCG      -0.029300
     15 C12         18.7650    -0.6320   -21.1870 ce         1 YCG       0.387900
     16 C14         19.9850    -1.2470   -21.8620 c5         1 YCG      -0.164700
     17 C16         16.4830    -0.2000   -19.1540 c3         1 YCG      -0.048800
     18 N19         12.7500    -1.7460   -23.0840 nb         1 YCG      -0.656000
     19 N20         17.7020    -1.1310   -21.7050 n2         1 YCG      -0.428300
     20 N21         17.9600    -2.1860   -22.5250 n          1 YCG      -0.185800
     21 O22         17.1950    -4.1150   -23.5700 o          1 YCG      -0.578100
     22 H1          17.0290     1.9270   -17.5870 ha         1 YCG       0.115000
     23 H3          15.8440    -0.3920   -23.2630 ha         1 YCG       0.132500
     24 H4          12.2830    -3.7690   -22.9590 h4         1 YCG       0.020600
     25 H5          13.4430     0.2080   -23.2370 h4         1 YCG       0.020600
     26 H6          19.7490    -1.9240   -24.5990 hc         1 YCG       0.051367
     27 H7          21.0930    -2.8360   -23.8930 hc         1 YCG       0.051367
     28 H8          19.6310    -3.6790   -24.4090 hc         1 YCG       0.051367
     29 H9          20.8820     2.9960   -19.1670 ha         1 YCG       0.116000
     30 H10         19.0240     3.3900   -17.5580 ha         1 YCG       0.116000
     31 H11         20.7430     1.1550   -20.8010 ha         1 YCG       0.110000
     32 H12         20.7950    -1.4420   -21.1510 hc         1 YCG       0.073700
     33 H13         20.3730    -0.5530   -22.6150 hc         1 YCG       0.073700
     34 H14         16.7430    -1.2650   -19.1320 hc         1 YCG       0.051033
     35 H15         15.8900    -0.0010   -18.2530 hc         1 YCG       0.051033
     36 H16         15.8300    -0.0220   -20.0160 hc         1 YCG       0.051033
     37 C18         19.6920    -3.7840   -21.6170 c3         1 YCG      -0.097100
     38 H2          14.6450    -4.5510   -22.9460 ha         1 YCG       0.132500
     39 H17         19.2730    -3.6480   -20.6130 hc         1 YCG       0.051367
     40 H18         19.2680    -4.7050   -22.0310 hc         1 YCG       0.051367
     41 H19         20.7720    -3.9440   -21.5060 hc         1 YCG       0.051367
@<TRIPOS>BOND
     1     1    11 ar  
     2     1    14 ar  
     3     1    22 1   
     4     2     4 ar  
     5     2     6 ar  
     6     2    38 1   
     7     3     5 ar  
     8     3     6 ar  
     9     3    23 1   
    10     4    18 ar  
    11     4    24 1   
    12     5    18 ar  
    13     5    25 1   
    14     6     7 1   
    15     7    20 1   
    16     7    21 2   
    17     8     9 1   
    18     8    16 1   
    19     8    20 1   
    20     8    37 1   
    21     9    26 1   
    22     9    27 1   
    23     9    28 1   
    24    10    11 ar  
    25    10    12 ar  
    26    10    29 1   
    27    11    30 1   
    28    12    13 ar  
    29    12    31 1   
    30    13    14 ar  
    31    13    15 1   
    32    14    17 1   
    33    15    16 1   
    34    15    19 2   
    35    16    32 1   
    36    16    33 1   
    37    17    34 1   
    38    17    35 1   
    39    17    36 1   
    40    19    20 1   
    41    37    39 1   
    42    37    40 1   
    43    37    41 1   
@<TRIPOS>SUBSTRUCTURE
     1 YCG         1 TEMP              0 ****  ****    0 ROOT
