@<TRIPOS>MOLECULE
YCG
   41    43     1     0     0
SMALL
bcc


@<TRIPOS>ATOM
      1 C4          17.7100     1.7200   -18.4690 ca         1 YCG      -0.140000
      2 C5          14.6210    -3.4180   -22.5890 ca         1 YCG      -0.203800
      3 C6          15.1990    -1.1960   -23.2290 ca         1 YCG      -0.203800
      4 C7          13.3030    -2.9920   -22.5080 ca         1 YCG       0.390700
      5 C8          13.8520    -0.8820   -23.1430 ca         1 YCG       0.390700
      6 C10         15.5970    -2.4960   -22.9410 ca         1 YCG      -0.084600
      7 C13         17.0080    -2.9720   -23.1090 c          1 YCG       0.705700
      8 C15         19.4360    -2.5110   -22.5630 c5         1 YCG       0.113400
      9 C17         19.9770    -2.5700   -23.9840 c3         1 YCG      -0.097100
     10 C1          20.0220     2.0270   -19.0200 ca         1 YCG      -0.138000
     11 C2          18.9090     2.3910   -18.2780 ca         1 YCG      -0.108000
     12 C3          19.9140     0.9970   -19.9380 ca         1 YCG      -0.112000
     13 C9          18.7080     0.3190   -20.1470 ca         1 YCG      -0.120900
     14 C11         17.5740     0.6870   -19.3930 ca         1 YCG      -0.029300
     15 C12         18.7100    -0.7440   -21.1510 ce         1 YCG       0.387900
     16 C14         19.9520    -1.2730   -21.8110 c5         1 YCG      -0.164700
     17 C16         16.2330     0.0260   -19.5230 c3         1 YCG      -0.048800
     18 N19         12.9160    -1.7530   -22.7810 nb         1 YCG      -0.656000
     19 N20         17.6460    -1.2950   -21.5950 n2         1 YCG      -0.428300
     20 N21         17.9770    -2.2420   -22.5160 n          1 YCG      -0.252800
     21 O22         17.2400    -3.9680   -23.7740 o          1 YCG      -0.578100
     22 H1          16.8470     2.0060   -17.8800 ha         1 YCG       0.133000
     23 H3          15.9110    -0.4370   -23.5210 ha         1 YCG       0.150500
     24 H4          12.5270    -3.6900   -22.2140 h4         1 YCG       0.020600
     25 H5          13.5180     0.1230   -23.3730 h4         1 YCG       0.020600
     26 H6          19.6640    -1.6970   -24.5560 hc         1 YCG       0.051367
     27 H7          21.0670    -2.5740   -23.9480 hc         1 YCG       0.051367
     28 H8          19.6560    -3.4670   -24.5080 hc         1 YCG       0.051367
     29 H9          20.9670     2.5350   -18.8850 ha         1 YCG       0.134000
     30 H10         18.9710     3.1900   -17.5510 ha         1 YCG       0.134000
     31 H11         20.7910     0.7200   -20.5090 ha         1 YCG       0.128000
     32 H12         20.7390    -1.5240   -21.0990 hc         1 YCG       0.073700
     33 H13         20.3640    -0.5220   -22.4930 hc         1 YCG       0.073700
     34 H14         16.2960    -1.0550   -19.3950 hc         1 YCG       0.051033
     35 H15         15.5490     0.4180   -18.7710 hc         1 YCG       0.051033
     36 H16         15.7900     0.1940   -20.5040 hc         1 YCG       0.051033
     37 C18         19.7500    -3.7840   -21.7800 c3         1 YCG      -0.097100
     38 H2          14.8710    -4.4470   -22.3680 ha         1 YCG       0.150500
     39 H17         19.3600    -3.7230   -20.7630 hc         1 YCG       0.051367
     40 H18         19.3290    -4.6640   -22.2620 hc         1 YCG       0.051367
     41 H19         20.8310    -3.9160   -21.7160 hc         1 YCG       0.051367
@<TRIPOS>BOND
     1     1    11 ar  
     2     1    14 ar  
     3     1    22 1   
     4     2     4 ar  
     5     2     6 ar  
     6     2    38 1   
     7     3     5 ar  
     8     3     6 ar  
     9     3    23 1   
    10     4    18 ar  
    11     4    24 1   
    12     5    18 ar  
    13     5    25 1   
    14     6     7 1   
    15     7    20 1   
    16     7    21 2   
    17     8     9 1   
    18     8    16 1   
    19     8    20 1   
    20     8    37 1   
    21     9    26 1   
    22     9    27 1   
    23     9    28 1   
    24    10    11 ar  
    25    10    12 ar  
    26    10    29 1   
    27    11    30 1   
    28    12    13 ar  
    29    12    31 1   
    30    13    14 ar  
    31    13    15 1   
    32    14    17 1   
    33    15    16 1   
    34    15    19 2   
    35    16    32 1   
    36    16    33 1   
    37    17    34 1   
    38    17    35 1   
    39    17    36 1   
    40    19    20 1   
    41    37    39 1   
    42    37    40 1   
    43    37    41 1   
@<TRIPOS>SUBSTRUCTURE
     1 YCG         1 TEMP              0 ****  ****    0 ROOT
