@<TRIPOS>MOLECULE
YCJ
   55    58     1     0     0
SMALL
No Charge or Current Charge


@<TRIPOS>ATOM
      1 C4          17.6700    -3.7840   -22.6340 ca         1 YCJ      -0.098000
      2 C5          19.8850     4.6790   -20.4630 ca         1 YCJ      -0.107500
      3 C6          20.9580     2.8450   -19.2800 ca         1 YCJ      -0.107500
      4 C7          18.9830    -4.0010   -23.0870 ca         1 YCJ      -0.102000
      5 C8          15.2160    -2.8910   -20.9600 ca         1 YCJ      -0.151000
      6 C10         19.2390    -1.6230   -23.4990 ca         1 YCJ      -0.083000
      7 C13         17.1050    -2.4860   -22.6030 cp         1 YCJ      -0.025000
      8 C15         17.9350    -1.4010   -23.0150 ca         1 YCJ      -0.119600
      9 C17         19.7700    -2.9240   -23.5330 ca         1 YCJ      -0.071300
     10 C20         18.1890     0.9070   -19.6540 c6         1 YCJ      -0.111900
     11 C21         16.1710     1.7840   -21.6100 c6         1 YCJ       0.097000
     12 C22         17.2670    -0.0840   -20.4050 c6         1 YCJ       0.097000
     13 C24         21.1860    -3.1620   -24.0330 c3         1 YCJ      -0.048800
     14 C1          22.2280     4.1660   -20.8840 ca         1 YCJ      -0.108000
     15 C2          21.0890     4.9490   -21.1360 ca         1 YCJ      -0.108000
     16 C3          22.1620     3.1150   -19.9540 ca         1 YCJ      -0.108000
     17 C9          14.7300    -1.6220   -22.9410 ca         1 YCJ      -0.151000
     18 C11         13.8750    -2.7230   -20.5770 ca         1 YCJ       0.332900
     19 C12         13.4080    -1.4990   -22.4850 ca         1 YCJ       0.332900
     20 C14         15.6830    -2.3240   -22.1670 cp         1 YCJ      -0.003000
     21 C16         19.8080     3.6180   -19.5380 ca         1 YCJ      -0.077300
     22 C18         17.3690    -0.0020   -22.9540 c          1 YCJ       0.612700
     23 C19         17.0730     2.8170   -20.8920 c6         1 YCJ      -0.111900
     24 C23         17.5350     2.3110   -19.4960 c6         1 YCJ       0.189000
     25 C25         18.5010     3.3290   -18.8000 c3         1 YCJ      -0.058100
     26 N26         12.9770    -2.0370   -21.3210 nb         1 YCJ      -0.662000
     27 N27         16.8540     0.4700   -21.7230 n          1 YCJ      -0.389800
     28 O28         17.3380     0.6930   -23.9620 o          1 YCJ      -0.596100
     29 O29         16.3850     2.1930   -18.6510 oh         1 YCJ      -0.660000
     30 H1          17.0730    -4.6370   -22.3210 ha         1 YCJ       0.120000
     31 H3          20.9190     2.0310   -18.5600 ha         1 YCJ       0.110000
     32 H4          19.3840    -5.0120   -23.1030 ha         1 YCJ       0.116000
     33 H5          15.8890    -3.4490   -20.3160 ha         1 YCJ       0.131000
     34 H6          19.8430    -0.7800   -23.8290 ha         1 YCJ       0.125000
     35 H7          18.4570     0.4940   -18.6720 hc         1 YCJ       0.058200
     36 H8          19.1260     0.9940   -20.2190 hc         1 YCJ       0.058200
     37 H9          15.8890     2.1650   -22.6010 h1         1 YCJ       0.065200
     38 H10         15.2370     1.6520   -21.0440 h1         1 YCJ       0.065200
     39 H11         16.3670    -0.2850   -19.8050 h1         1 YCJ       0.065200
     40 H12         17.7960    -1.0390   -20.5190 h1         1 YCJ       0.065200
     41 H13         21.9090    -3.0770   -23.2130 hc         1 YCJ       0.045367
     42 H14         21.2930    -4.1610   -24.4730 hc         1 YCJ       0.045367
     43 H15         21.4660    -2.4330   -24.8030 hc         1 YCJ       0.045367
     44 H16         23.1600     4.3750   -21.4050 ha         1 YCJ       0.114000
     45 H17         21.1400     5.7660   -21.8520 ha         1 YCJ       0.113500
     46 H18         23.0440     2.5100   -19.7540 ha         1 YCJ       0.113500
     47 H19         15.0080    -1.1780   -23.8920 ha         1 YCJ       0.131000
     48 H20         13.5070    -3.1500   -19.6450 h4         1 YCJ       0.019100
     49 H21         12.6670    -0.9580   -23.0730 h4         1 YCJ       0.019100
     50 H22         17.9450     3.0120   -21.5290 hc         1 YCJ       0.058200
     51 H23         16.5380     3.7710   -20.7940 hc         1 YCJ       0.058200
     52 H24         18.7390     2.9700   -17.7910 hc         1 YCJ       0.053700
     53 H25         17.9680     4.2750   -18.6420 hc         1 YCJ       0.053700
     54 H26         16.7100     1.9160   -17.7680 ho         1 YCJ       0.440000
     55 H2          19.0100     5.2930   -20.6630 ha         1 YCJ       0.110000
@<TRIPOS>BOND
     1     1     4 ar  
     2     1     7 ar  
     3     1    30 1   
     4     2    15 ar  
     5     2    21 ar  
     6     2    55 1   
     7     3    16 ar  
     8     3    21 ar  
     9     3    31 1   
    10     4     9 ar  
    11     4    32 1   
    12     5    18 ar  
    13     5    20 ar  
    14     5    33 1   
    15     6     8 ar  
    16     6     9 ar  
    17     6    34 1   
    18     7     8 ar  
    19     7    20 1   
    20     8    22 1   
    21     9    13 1   
    22    10    12 1   
    23    10    24 1   
    24    10    35 1   
    25    10    36 1   
    26    11    23 1   
    27    11    27 1   
    28    11    37 1   
    29    11    38 1   
    30    12    27 1   
    31    12    39 1   
    32    12    40 1   
    33    13    41 1   
    34    13    42 1   
    35    13    43 1   
    36    14    15 ar  
    37    14    16 ar  
    38    14    44 1   
    39    15    45 1   
    40    16    46 1   
    41    17    19 ar  
    42    17    20 ar  
    43    17    47 1   
    44    18    26 ar  
    45    18    48 1   
    46    19    26 ar  
    47    19    49 1   
    48    21    25 1   
    49    22    27 1   
    50    22    28 2   
    51    23    24 1   
    52    23    50 1   
    53    23    51 1   
    54    24    25 1   
    55    24    29 1   
    56    25    52 1   
    57    25    53 1   
    58    29    54 1   
@<TRIPOS>SUBSTRUCTURE
     1 YCJ         1 TEMP              0 ****  ****    0 ROOT
