@<TRIPOS>MOLECULE
YCJ
   55    58     1     0     0
SMALL
abcg2


@<TRIPOS>ATOM
      1 C4          17.6910    -3.6190   -22.6760 ca         1 YCJ      -0.098000
      2 C5          20.0820     4.4500   -20.7030 ca         1 YCJ      -0.107500
      3 C6          21.1140     2.5910   -19.6080 ca         1 YCJ      -0.107500
      4 C7          19.0500    -3.6510   -22.9400 ca         1 YCJ      -0.102000
      5 C8          15.0430    -3.1140   -21.2180 ca         1 YCJ      -0.151000
      6 C10         19.0810    -1.2680   -23.0530 ca         1 YCJ      -0.083000
      7 C13         17.0020    -2.4120   -22.5950 cp         1 YCJ      -0.025000
      8 C15         17.7200    -1.2260   -22.7780 ca         1 YCJ      -0.119600
      9 C17         19.7700    -2.4750   -23.1280 ca         1 YCJ      -0.071300
     10 C20         18.2040     0.8970   -19.6350 c6         1 YCJ      -0.111900
     11 C21         16.0880     1.8750   -21.3480 c6         1 YCJ       0.097000
     12 C22         17.1430    -0.0100   -20.2480 c6         1 YCJ       0.097000
     13 C24         21.2490    -2.4980   -23.3750 c3         1 YCJ      -0.048800
     14 C1          22.2930     3.7560   -21.3530 ca         1 YCJ      -0.108000
     15 C2          21.2080     4.6090   -21.5000 ca         1 YCJ      -0.108000
     16 C3          22.2430     2.7460   -20.4010 ca         1 YCJ      -0.108000
     17 C9          14.6380    -1.7460   -23.1190 ca         1 YCJ      -0.151000
     18 C11         13.6760    -3.1070   -20.9900 ca         1 YCJ       0.332900
     19 C12         13.2900    -1.8050   -22.8050 ca         1 YCJ       0.332900
     20 C14         15.5530    -2.4130   -22.3080 cp         1 YCJ      -0.003000
     21 C16         20.0120     3.4340   -19.7500 ca         1 YCJ      -0.077300
     22 C18         17.0620     0.1210   -22.7180 c          1 YCJ       0.612700
     23 C19         17.1120     2.8400   -20.7590 c6         1 YCJ      -0.111900
     24 C23         17.6890     2.3270   -19.4400 c6         1 YCJ       0.189000
     25 C25         18.7890     3.2620   -18.8930 c3         1 YCJ      -0.058100
     26 N26         12.8050    -2.4680   -21.7610 nb         1 YCJ      -0.662000
     27 N27         16.6750     0.5540   -21.5030 n          1 YCJ      -0.389800
     28 O28         16.8990     0.7580   -23.7500 o          1 YCJ      -0.596100
     29 O29         16.6110     2.3330   -18.5170 oh         1 YCJ      -0.660000
     30 H1          17.1500    -4.5490   -22.5490 ha         1 YCJ       0.120000
     31 H3          21.0900     1.8050   -18.8630 ha         1 YCJ       0.110000
     32 H4          19.5570    -4.6060   -23.0060 ha         1 YCJ       0.116000
     33 H5          15.7000    -3.6480   -20.5440 ha         1 YCJ       0.131000
     34 H6          19.6220    -0.3390   -23.1910 ha         1 YCJ       0.125000
     35 H7          18.5260     0.4820   -18.6740 hc         1 YCJ       0.058200
     36 H8          19.0810     0.9000   -20.2870 hc         1 YCJ       0.058200
     37 H9          15.7370     2.2320   -22.3120 h1         1 YCJ       0.065200
     38 H10         15.2160     1.7870   -20.6960 h1         1 YCJ       0.065200
     39 H11         16.2900    -0.1170   -19.5740 h1         1 YCJ       0.065200
     40 H12         17.5510    -1.0050   -20.4040 h1         1 YCJ       0.065200
     41 H13         21.7990    -2.3680   -22.4410 hc         1 YCJ       0.045367
     42 H14         21.5660    -3.4440   -23.8120 hc         1 YCJ       0.045367
     43 H15         21.5550    -1.6940   -24.0440 hc         1 YCJ       0.045367
     44 H16         23.1730     3.8810   -21.9710 ha         1 YCJ       0.114000
     45 H17         21.2390     5.4060   -22.2320 ha         1 YCJ       0.113500
     46 H18         23.0860     2.0800   -20.2710 ha         1 YCJ       0.113500
     47 H19         14.9590    -1.2000   -23.9960 ha         1 YCJ       0.131000
     48 H20         13.2700    -3.6440   -20.1390 h4         1 YCJ       0.019100
     49 H21         12.5680    -1.2940   -23.4320 h4         1 YCJ       0.019100
     50 H22         17.9180     2.9770   -21.4830 hc         1 YCJ       0.058200
     51 H23         16.6500     3.8200   -20.6080 hc         1 YCJ       0.058200
     52 H24         19.0910     2.8760   -17.9140 hc         1 YCJ       0.053700
     53 H25         18.3290     4.2390   -18.7160 hc         1 YCJ       0.053700
     54 H26         16.9090     1.9270   -17.6950 ho         1 YCJ       0.440000
     55 H2          19.2470     5.1310   -20.8200 ha         1 YCJ       0.110000
@<TRIPOS>BOND
     1     1     4 ar  
     2     1     7 ar  
     3     1    30 1   
     4     2    15 ar  
     5     2    21 ar  
     6     2    55 1   
     7     3    16 ar  
     8     3    21 ar  
     9     3    31 1   
    10     4     9 ar  
    11     4    32 1   
    12     5    18 ar  
    13     5    20 ar  
    14     5    33 1   
    15     6     8 ar  
    16     6     9 ar  
    17     6    34 1   
    18     7     8 ar  
    19     7    20 1   
    20     8    22 1   
    21     9    13 1   
    22    10    12 1   
    23    10    24 1   
    24    10    35 1   
    25    10    36 1   
    26    11    23 1   
    27    11    27 1   
    28    11    37 1   
    29    11    38 1   
    30    12    27 1   
    31    12    39 1   
    32    12    40 1   
    33    13    41 1   
    34    13    42 1   
    35    13    43 1   
    36    14    15 ar  
    37    14    16 ar  
    38    14    44 1   
    39    15    45 1   
    40    16    46 1   
    41    17    19 ar  
    42    17    20 ar  
    43    17    47 1   
    44    18    26 ar  
    45    18    48 1   
    46    19    26 ar  
    47    19    49 1   
    48    21    25 1   
    49    22    27 1   
    50    22    28 2   
    51    23    24 1   
    52    23    50 1   
    53    23    51 1   
    54    24    25 1   
    55    24    29 1   
    56    25    52 1   
    57    25    53 1   
    58    29    54 1   
@<TRIPOS>SUBSTRUCTURE
     1 YCJ         1 TEMP              0 ****  ****    0 ROOT
