@<TRIPOS>MOLECULE
YCL
   42    42     1     0     0
SMALL
No Charge or Current Charge


@<TRIPOS>ATOM
      1 Cl           5.4740    -1.9860     1.4010 cl         1 YCL      -0.241000
      2 O1          -2.9140     0.5230    -2.2260 o          1 YCL      -0.709500
      3 O2          -4.8600     0.4560    -1.2970 o          1 YCL      -0.709500
      4 NAA         -0.9980     4.6350     0.7510 nt         1 YCL      -0.597000
      5 NAC          5.5310     0.5290    -1.5680 n2         1 YCL      -0.826100
      6 OAE         -2.7050     3.5090    -0.1220 o          1 YCL      -0.602100
      7 OAF         -1.0670    -0.2910     1.9590 o          1 YCL      -0.628100
      8 CAH         -3.7870    -3.6820    -0.6420 ca         1 YCL      -0.128000
      9 CAI         -4.0340    -2.4340    -1.2280 ca         1 YCL      -0.092000
     10 CAJ         -2.8630    -3.7860     0.4020 ca         1 YCL      -0.148000
     11 CAK         -3.3590    -1.2720    -0.7900 ca         1 YCL      -0.108600
     12 CAL         -2.1870    -2.6440     0.8570 ca         1 YCL      -0.104000
     13 CAM          1.5200     0.9870     0.0510 c3         1 YCL      -0.085400
     14 CAN          2.8960     1.1130    -0.6300 c3         1 YCL       0.211800
     15 CAO          0.6190     2.2250    -0.1790 c3         1 YCL      -0.079400
     16 CAP          5.6270    -1.6540    -0.3920 c3         1 YCL       0.075300
     17 NAR          3.7040    -0.0920    -0.3790 nu         1 YCL      -0.956400
     18 NAS         -1.5340     0.9790     0.1560 ns         1 YCL      -0.477900
     19 CAU         -1.5820     3.4790     0.3580 c          1 YCL       0.605100
     20 CAV          4.9870    -0.3370    -0.8150 c2         1 YCL       0.615200
     21 CAW         -1.6170    -0.1970     0.8680 c          1 YCL       0.663700
     22 CAX         -2.4060    -1.3680     0.2780 ca         1 YCL      -0.128600
     23 CAZ         -0.7510     2.1730     0.5570 c3         1 YCL       0.033700
     24 HNAA        -1.5000     5.5030     0.6400 hn         1 YCL       0.307500
     25 HNAB        -0.0730     4.6260     1.1550 hn         1 YCL       0.307500
     26 HNAC         4.8450     1.2810    -1.6800 hn         1 YCL       0.380400
     27 HAH         -4.3150    -4.5650    -0.9940 ha         1 YCL       0.089000
     28 HAI         -4.7610    -2.3610    -2.0340 ha         1 YCL       0.130000
     29 HAJ         -2.6700    -4.7520     0.8640 ha         1 YCL       0.088000
     30 HAL         -1.4750    -2.7610     1.6710 ha         1 YCL       0.096000
     31 HAM          1.0180     0.0910    -0.3350 hc         1 YCL       0.057200
     32 HAMA         1.6630     0.8410     1.1290 hc         1 YCL       0.057200
     33 HAN          2.7510     1.2500    -1.7110 h1         1 YCL       0.035200
     34 HANA         3.4130     2.0000    -0.2380 h1         1 YCL       0.035200
     35 HAO          1.1710     3.1150     0.1480 hc         1 YCL       0.045700
     36 HAOA         0.4410     2.3440    -1.2550 hc         1 YCL       0.045700
     37 HAP          6.6960    -1.6480    -0.6320 h1         1 YCL       0.070700
     38 HAPA         5.1520    -2.4860    -0.9240 h1         1 YCL       0.070700
     39 HNAS        -1.9890     0.9930    -0.7530 hn         1 YCL       0.329500
     40 HAZ         -0.5500     2.1190     1.6350 h1         1 YCL       0.079700
     41 HAR          3.3510    -0.7610     0.3040 hn         1 YCL       0.481000
     42 C1          -3.7350     0.0150    -1.4780 c          1 YCL       0.711600
@<TRIPOS>BOND
     1     1    16 1   
     2     2    42 1   
     3     3    42 1   
     4     4    19 1   
     5     4    24 1   
     6     4    25 1   
     7     5    20 2   
     8     5    26 1   
     9     6    19 2   
    10     7    21 2   
    11     8     9 ar  
    12     8    10 ar  
    13     8    27 1   
    14     9    11 ar  
    15     9    28 1   
    16    10    12 ar  
    17    10    29 1   
    18    11    22 ar  
    19    11    42 1   
    20    12    22 ar  
    21    12    30 1   
    22    13    14 1   
    23    13    15 1   
    24    13    31 1   
    25    13    32 1   
    26    14    17 1   
    27    14    33 1   
    28    14    34 1   
    29    15    23 1   
    30    15    35 1   
    31    15    36 1   
    32    16    20 1   
    33    16    37 1   
    34    16    38 1   
    35    17    20 1   
    36    17    41 1   
    37    18    21 1   
    38    18    23 1   
    39    18    39 1   
    40    19    23 1   
    41    21    22 1   
    42    23    40 1   
@<TRIPOS>SUBSTRUCTURE
     1 YCL         1 TEMP              0 ****  ****    0 ROOT
