@<TRIPOS>MOLECULE
YCL
   42    42     1     0     0
SMALL
abcg2


@<TRIPOS>ATOM
      1 CL           7.7710    -1.3180    -0.1220 cl         1 YCL      -0.241000
      2 O1          -5.4750     0.6510    -1.1270 o          1 YCL      -0.709500
      3 O2          -4.0570     1.1490     0.5220 o          1 YCL      -0.709500
      4 NAA         -1.6250     4.0000     0.6350 nt         1 YCL      -0.597000
      5 NAC          5.8300     0.4320    -1.4450 n2         1 YCL      -0.826100
      6 OAE         -1.8180     3.0580    -1.4070 o          1 YCL      -0.602100
      7 OAF         -1.5950    -0.1990     1.9580 o          1 YCL      -0.628100
      8 CAH         -4.1100    -3.3170    -1.0790 ca         1 YCL      -0.128000
      9 CAI         -4.6140    -2.0250    -1.0580 ca         1 YCL      -0.092000
     10 CAJ         -2.8800    -3.5900    -0.4960 ca         1 YCL      -0.148000
     11 CAK         -3.9100    -0.9870    -0.4520 ca         1 YCL      -0.108600
     12 CAL         -2.1610    -2.5640     0.0990 ca         1 YCL      -0.104000
     13 CAM          1.7630     0.8640     0.1510 c3         1 YCL      -0.085400
     14 CAN          3.1440     1.0030    -0.4680 c3         1 YCL       0.211800
     15 CAO          0.8250     1.9510    -0.3530 c3         1 YCL      -0.079400
     16 CAP          6.0330    -1.2970     0.2420 c3         1 YCL       0.075300
     17 NAR          4.0330    -0.0300     0.0140 nu         1 YCL      -0.956400
     18 NAS         -1.2290     0.6170    -0.1290 ns         1 YCL      -0.477900
     19 CAU         -1.4210     3.0210    -0.2520 c          1 YCL       0.605100
     20 CAV          5.2920    -0.1880    -0.4720 c2         1 YCL       0.615200
     21 CAW         -1.8230    -0.2060     0.7580 c          1 YCL       0.663700
     22 CAX         -2.6680    -1.2680     0.1200 ca         1 YCL      -0.128600
     23 CAZ         -0.5790     1.8470     0.2460 c3         1 YCL       0.033700
     24 HNAA        -2.1490     4.8220     0.3800 hn         1 YCL       0.307500
     25 HNAB        -1.3250     3.9220     1.5910 hn         1 YCL       0.307500
     26 HNAC         5.2100     1.1370    -1.8330 hn         1 YCL       0.380400
     27 HAH         -4.6780    -4.1120    -1.5470 ha         1 YCL       0.089000
     28 HAI         -5.5740    -1.8130    -1.5080 ha         1 YCL       0.130000
     29 HAJ         -2.4800    -4.5960    -0.5060 ha         1 YCL       0.088000
     30 HAL         -1.1950    -2.7750     0.5420 ha         1 YCL       0.096000
     31 HAM          1.3580    -0.1220    -0.0890 hc         1 YCL       0.057200
     32 HAMA         1.8420     0.9220     1.2420 hc         1 YCL       0.057200
     33 HAN          3.0580     0.9230    -1.5560 h1         1 YCL       0.035200
     34 HANA         3.5490     2.0010    -0.2540 h1         1 YCL       0.035200
     35 HAO          1.2340     2.9350    -0.1040 hc         1 YCL       0.045700
     36 HAOA         0.7550     1.9090    -1.4440 hc         1 YCL       0.045700
     37 HAP          5.6200    -2.2620    -0.0520 h1         1 YCL       0.070700
     38 HAPA         5.9230    -1.2010     1.3210 h1         1 YCL       0.070700
     39 HNAS        -1.5380     0.5630    -1.0880 hn         1 YCL       0.329500
     40 HAZ         -0.5020     1.8640     1.3330 h1         1 YCL       0.079700
     41 HAR          3.8260    -0.4150     0.9220 hn         1 YCL       0.481000
     42 C1          -4.5340     0.4010    -0.3520 c          1 YCL       0.711600
@<TRIPOS>BOND
     1     1    16 1   
     2     2    42 1   
     3     3    42 1   
     4     4    19 1   
     5     4    24 1   
     6     4    25 1   
     7     5    20 2   
     8     5    26 1   
     9     6    19 2   
    10     7    21 2   
    11     8     9 ar  
    12     8    10 ar  
    13     8    27 1   
    14     9    11 ar  
    15     9    28 1   
    16    10    12 ar  
    17    10    29 1   
    18    11    22 ar  
    19    11    42 1   
    20    12    22 ar  
    21    12    30 1   
    22    13    14 1   
    23    13    15 1   
    24    13    31 1   
    25    13    32 1   
    26    14    17 1   
    27    14    33 1   
    28    14    34 1   
    29    15    23 1   
    30    15    35 1   
    31    15    36 1   
    32    16    20 1   
    33    16    37 1   
    34    16    38 1   
    35    17    20 1   
    36    17    41 1   
    37    18    21 1   
    38    18    23 1   
    39    18    39 1   
    40    19    23 1   
    41    21    22 1   
    42    23    40 1   
@<TRIPOS>SUBSTRUCTURE
     1 YCL         1 TEMP              0 ****  ****    0 ROOT
