@<TRIPOS>MOLECULE
YCN
   32    32     1     0     0
SMALL
No Charge or Current Charge


@<TRIPOS>ATOM
      1 C1           1.6670    -2.4410    -0.0520 c3         1 YCN       0.171800
      2 N1           0.2500    -2.4520     0.4220 n7         1 YCN      -0.895400
      3 C2           2.4500    -1.1450     0.3540 c3         1 YCN       0.171800
      4 N2           1.9590     0.0610    -0.3540 n7         1 YCN      -0.895400
      5 C3           2.1750     1.3860     0.2810 c3         1 YCN       0.171800
      6 N3          -0.2820     1.6100     0.3790 n7         1 YCN      -0.895400
      7 C4           0.9600     2.3060    -0.0300 c3         1 YCN       0.171800
      8 N4          -2.8320    -0.2810    -0.2920 n7         1 YCN      -0.895400
      9 C5          -1.4970     1.9360    -0.4060 c3         1 YCN       0.171800
     10 C6          -2.7740     1.1680     0.0750 c3         1 YCN       0.171800
     11 C7          -1.9370    -1.2000     0.4620 c3         1 YCN       0.171800
     12 C8          -0.7390    -1.6980    -0.3980 c3         1 YCN       0.171800
     13 H1           2.1980    -3.2870     0.4060 h1         1 YCN       0.032950
     14 H1A          1.7200    -2.5840    -1.1400 h1         1 YCN       0.032950
     15 HN1         -0.0710    -3.4270     0.4730 hn         1 YCN       0.420750
     16 H2           2.3440    -1.0200     1.4410 h1         1 YCN       0.032950
     17 H2A          3.5190    -1.2920     0.1490 h1         1 YCN       0.032950
     18 HN2          2.2880     0.0690    -1.3270 hn         1 YCN       0.420750
     19 H3           2.2480     1.2830     1.3730 h1         1 YCN       0.032950
     20 H3A          3.1060     1.8500    -0.0740 h1         1 YCN       0.032950
     21 HN3         -0.0670     0.6160     0.2000 hn         1 YCN       0.420750
     22 H4           1.0670     3.2690     0.4880 h1         1 YCN       0.032950
     23 H4A          0.9550     2.5030    -1.1110 h1         1 YCN       0.032950
     24 HN4         -3.7940    -0.5900    -0.1030 hn         1 YCN       0.420750
     25 H5          -1.7040     3.0120    -0.3210 h1         1 YCN       0.032950
     26 H5A         -1.3360     1.7210    -1.4710 h1         1 YCN       0.032950
     27 H6          -3.6330     1.6720    -0.3880 h1         1 YCN       0.032950
     28 H6A         -2.8880     1.2980     1.1600 h1         1 YCN       0.032950
     29 H7          -1.5560    -0.7120     1.3700 h1         1 YCN       0.032950
     30 H7A         -2.5040    -2.0820     0.7880 h1         1 YCN       0.032950
     31 H8          -0.2830    -0.8240    -0.8720 h1         1 YCN       0.032950
     32 H8A         -1.1150    -2.3290    -1.2150 h1         1 YCN       0.032950
@<TRIPOS>BOND
     1     1     2 1   
     2     1     3 1   
     3     1    13 1   
     4     1    14 1   
     5     2    12 1   
     6     2    15 1   
     7     3     4 1   
     8     3    16 1   
     9     3    17 1   
    10     4     5 1   
    11     4    18 1   
    12     5     7 1   
    13     5    19 1   
    14     5    20 1   
    15     6     7 1   
    16     6     9 1   
    17     6    21 1   
    18     7    22 1   
    19     7    23 1   
    20     8    10 1   
    21     8    11 1   
    22     8    24 1   
    23     9    10 1   
    24     9    25 1   
    25     9    26 1   
    26    10    27 1   
    27    10    28 1   
    28    11    12 1   
    29    11    29 1   
    30    11    30 1   
    31    12    31 1   
    32    12    32 1   
@<TRIPOS>SUBSTRUCTURE
     1 YCN         1 TEMP              0 ****  ****    0 ROOT
