@<TRIPOS>MOLECULE
YCN
   32    32     1     0     0
SMALL
abcg2


@<TRIPOS>ATOM
      1 C1           1.6460    -2.4060    -0.0340 c3         1 YCN       0.171800
      2 N1           0.2700    -2.4310     0.4360 n7         1 YCN      -0.895400
      3 C2           2.3930    -1.1350     0.3630 c3         1 YCN       0.171800
      4 N2           1.8750     0.0290    -0.3210 n7         1 YCN      -0.895400
      5 C3           2.1030     1.3420     0.2460 c3         1 YCN       0.171800
      6 N3          -0.2890     1.6270     0.3890 n7         1 YCN      -0.895400
      7 C4           0.9230     2.2460    -0.1090 c3         1 YCN       0.171800
      8 N4          -2.6360    -0.2110    -0.3730 n7         1 YCN      -0.895400
      9 C5          -1.5080     2.0230    -0.2850 c3         1 YCN       0.171800
     10 C6          -2.6980     1.1590     0.1180 c3         1 YCN       0.171800
     11 C7          -1.8440    -1.1550     0.4100 c3         1 YCN       0.171800
     12 C8          -0.7230    -1.7920    -0.4140 c3         1 YCN       0.171800
     13 H1           2.1700    -3.2470     0.4260 h1         1 YCN       0.032950
     14 H1A          1.7330    -2.5540    -1.1220 h1         1 YCN       0.032950
     15 HN1         -0.0020    -3.3860     0.6190 hn         1 YCN       0.420750
     16 H2           2.2590    -0.9880     1.4380 h1         1 YCN       0.032950
     17 H2A          3.4700    -1.2940     0.1990 h1         1 YCN       0.032950
     18 HN2          2.1200     0.0110    -1.3020 hn         1 YCN       0.420750
     19 H3           2.1550     1.2420     1.3340 h1         1 YCN       0.032950
     20 H3A          3.0430     1.8100    -0.0730 h1         1 YCN       0.032950
     21 HN3         -0.1430     0.6390     0.2270 hn         1 YCN       0.420750
     22 H4           1.0690     3.2380     0.3300 h1         1 YCN       0.032950
     23 H4A          0.9020     2.3890    -1.2030 h1         1 YCN       0.032950
     24 HN4         -3.5750    -0.5600    -0.4850 hn         1 YCN       0.420750
     25 H5          -1.7400     3.0620    -0.0250 h1         1 YCN       0.032950
     26 H5A         -1.4090     1.9920    -1.3830 h1         1 YCN       0.032950
     27 H6          -3.5910     1.6180    -0.3130 h1         1 YCN       0.032950
     28 H6A         -2.8170     1.2130     1.2110 h1         1 YCN       0.032950
     29 H7          -1.3910    -0.6550     1.2720 h1         1 YCN       0.032950
     30 H7A         -2.4810    -1.9410     0.8290 h1         1 YCN       0.032950
     31 H8          -0.2320    -1.0080    -0.9890 h1         1 YCN       0.032950
     32 H8A         -1.1580    -2.4820    -1.1510 h1         1 YCN       0.032950
@<TRIPOS>BOND
     1     1     2 1   
     2     1     3 1   
     3     1    13 1   
     4     1    14 1   
     5     2    12 1   
     6     2    15 1   
     7     3     4 1   
     8     3    16 1   
     9     3    17 1   
    10     4     5 1   
    11     4    18 1   
    12     5     7 1   
    13     5    19 1   
    14     5    20 1   
    15     6     7 1   
    16     6     9 1   
    17     6    21 1   
    18     7    22 1   
    19     7    23 1   
    20     8    10 1   
    21     8    11 1   
    22     8    24 1   
    23     9    10 1   
    24     9    25 1   
    25     9    26 1   
    26    10    27 1   
    27    10    28 1   
    28    11    12 1   
    29    11    29 1   
    30    11    30 1   
    31    12    31 1   
    32    12    32 1   
@<TRIPOS>SUBSTRUCTURE
     1 YCN         1 TEMP              0 ****  ****    0 ROOT
