@<TRIPOS>MOLECULE
YCP
   19    19     1     0     0
SMALL
No Charge or Current Charge


@<TRIPOS>ATOM
      1 C          -26.4290   -34.6980     3.4660 c          1 YCP       0.725000
      2 N          -24.8000   -36.3650     4.7140 n7         1 YCP      -0.816400
      3 O          -26.2400   -34.1560     2.3820 o          1 YCP      -0.729000
      4 CA         -25.8460   -36.1690     3.6300 c6         1 YCP       0.026500
      5 CB         -27.0060   -37.2130     3.7310 c6         1 YCP      -0.095400
      6 CD         -26.0630   -38.1810     5.8980 c6         1 YCP      -0.103400
      7 CE         -25.3830   -36.7860     6.0090 c6         1 YCP       0.177800
      8 CG         -26.5660   -38.5030     4.4630 c6         1 YCP      -0.070400
      9 OXT        -26.6170   -34.0300     4.4770 o          1 YCP      -0.729000
     10 HN         -24.1720   -37.1190     4.4180 hn         1 YCP       0.356000
     11 HA         -25.3260   -36.3700     2.6820 h1         1 YCP       0.036700
     12 HB         -27.8530   -36.7720     4.2740 hc         1 YCP       0.034700
     13 HBA        -27.3800   -37.4530     2.7260 hc         1 YCP       0.034700
     14 HD         -25.3580   -38.9620     6.2130 hc         1 YCP       0.037200
     15 HDA        -26.9000   -38.2230     6.6070 hc         1 YCP       0.037200
     16 HE         -24.6000   -36.8180     6.7810 h1         1 YCP       0.029700
     17 HEA        -26.1280   -36.0410     6.3270 h1         1 YCP       0.029700
     18 HG         -27.3970   -39.2200     4.5080 hc         1 YCP       0.009700
     19 HGA        -25.7650   -38.9900     3.8900 hc         1 YCP       0.009700
@<TRIPOS>BOND
     1     1     3 1   
     2     1     4 1   
     3     1     9 1   
     4     2     4 1   
     5     2     7 1   
     6     2    10 1   
     7     4     5 1   
     8     4    11 1   
     9     5     8 1   
    10     5    12 1   
    11     5    13 1   
    12     6     7 1   
    13     6     8 1   
    14     6    14 1   
    15     6    15 1   
    16     7    16 1   
    17     7    17 1   
    18     8    18 1   
    19     8    19 1   
@<TRIPOS>SUBSTRUCTURE
     1 YCP         1 TEMP              0 ****  ****    0 ROOT
