@<TRIPOS>MOLECULE
YCP
   19    19     1     0     0
SMALL
bcc


@<TRIPOS>ATOM
      1 C          -26.6250   -34.9200     4.0810 c          1 YCP       0.935600
      2 N          -24.6910   -36.4450     4.5690 n7         1 YCP      -0.761200
      3 O          -27.6720   -34.7270     3.4280 o          1 YCP      -0.834300
      4 CA         -25.7890   -36.1580     3.6550 c6         1 YCP       0.026500
      5 CB         -26.6520   -37.4110     3.3640 c6         1 YCP      -0.095400
      6 CD         -26.4670   -37.6780     5.8450 c6         1 YCP      -0.103400
      7 CE         -25.1280   -36.9280     5.8770 c6         1 YCP       0.177800
      8 CG         -26.5970   -38.4160     4.5210 c6         1 YCP      -0.070400
      9 OXT        -26.1770   -34.1900     4.9850 o          1 YCP      -0.834300
     10 HN         -24.1170   -37.1600     4.1410 hn         1 YCP       0.300800
     11 HA         -25.3250   -35.8530     2.7080 h1         1 YCP       0.036700
     12 HB         -27.6830   -37.1080     3.1790 hc         1 YCP       0.034700
     13 HBA        -26.3100   -37.8990     2.4470 hc         1 YCP       0.034700
     14 HD         -26.5290   -38.3640     6.6940 hc         1 YCP       0.037200
     15 HDA        -27.3020   -36.9790     5.9530 hc         1 YCP       0.037200
     16 HE         -24.3520   -37.5970     6.2560 h1         1 YCP       0.029700
     17 HEA        -25.1890   -36.0950     6.5810 h1         1 YCP       0.029700
     18 HG         -27.4840   -39.0530     4.5090 hc         1 YCP       0.009700
     19 HGA        -25.7410   -39.0890     4.4020 hc         1 YCP       0.009700
@<TRIPOS>BOND
     1     1     3 1   
     2     1     4 1   
     3     1     9 1   
     4     2     4 1   
     5     2     7 1   
     6     2    10 1   
     7     4     5 1   
     8     4    11 1   
     9     5     8 1   
    10     5    12 1   
    11     5    13 1   
    12     6     7 1   
    13     6     8 1   
    14     6    14 1   
    15     6    15 1   
    16     7    16 1   
    17     7    17 1   
    18     8    18 1   
    19     8    19 1   
@<TRIPOS>SUBSTRUCTURE
     1 YCP         1 TEMP              0 ****  ****    0 ROOT
