@<TRIPOS>MOLECULE
YCS
   23    23     1     0     0
SMALL
bcc


@<TRIPOS>ATOM
      1 C10         -1.3670    -3.3260   -11.0120 ca         1 YCS      -0.056900
      2 C01         -7.4000    -5.4050   -10.7530 c3         1 YCS      -0.089100
      3 C02         -6.2750    -4.4320   -11.0640 c3         1 YCS       0.070100
      4 C03         -6.4470    -3.8710   -12.4820 c          1 YCS       0.639100
      5 C07         -3.8920    -4.4890   -10.9980 ca         1 YCS       0.164100
      6 C08         -3.7580    -3.1040   -11.0700 ca         1 YCS      -0.186500
      7 C09         -2.4940    -2.5260   -11.0780 ca         1 YCS      -0.063500
      8 C11         -1.4890    -4.7080   -10.9390 ca         1 YCS      -0.063500
      9 C12         -2.7460    -5.2820   -10.9320 ca         1 YCS      -0.186500
     10 N05         -7.2770    -2.8230   -12.5630 nt         1 YCS      -0.680000
     11 O04         -5.8910    -4.3810   -13.4380 o          1 YCS      -0.569100
     12 O06         -5.0660    -5.1480   -10.9650 os         1 YCS      -0.295900
     13 BR13         0.3490    -2.5340   -11.0220 br         1 YCS      -0.102100
     14 H011        -8.3620    -4.8970   -10.8010 hc         1 YCS       0.055700
     15 H012        -7.4140    -6.2330   -11.4620 hc         1 YCS       0.055700
     16 H021        -6.3020    -3.6160   -10.3310 h1         1 YCS       0.048700
     17 H081        -4.6140    -2.4450   -11.1200 ha         1 YCS       0.141500
     18 H091        -2.4110    -1.4490   -11.1340 ha         1 YCS       0.146000
     19 H111        -0.6150    -5.3430   -10.8880 ha         1 YCS       0.146000
     20 H121        -2.8450    -6.3590   -10.8750 ha         1 YCS       0.141500
     21 H052        -7.5180    -2.4330   -13.4600 hn         1 YCS       0.315500
     22 H051        -7.7170    -2.4210   -11.7520 hn         1 YCS       0.315500
     23 H013        -7.2840    -5.8080    -9.7470 hc         1 YCS       0.055700
@<TRIPOS>BOND
     1     1     7 ar  
     2     1     8 ar  
     3     1    13 1   
     4     2     3 1   
     5     2    14 1   
     6     2    15 1   
     7     2    23 1   
     8     3     4 1   
     9     3    12 1   
    10     3    16 1   
    11     4    10 1   
    12     4    11 2   
    13     5     6 ar  
    14     5     9 ar  
    15     5    12 1   
    16     6     7 ar  
    17     6    17 1   
    18     7    18 1   
    19     8     9 ar  
    20     8    19 1   
    21     9    20 1   
    22    10    21 1   
    23    10    22 1   
@<TRIPOS>SUBSTRUCTURE
     1 YCS         1 TEMP              0 ****  ****    0 ROOT
