@<TRIPOS>MOLECULE
YCS
   23    23     1     0     0
SMALL
No Charge or Current Charge


@<TRIPOS>ATOM
      1 C10         -1.2330    -3.3690   -10.9820 ca         1 YCS      -0.056900
      2 C01         -7.4340    -5.3370   -10.7020 c3         1 YCS      -0.089100
      3 C02         -6.3030    -4.3590   -11.0900 c3         1 YCS       0.093300
      4 C03         -6.5050    -3.7740   -12.5230 c          1 YCS       0.572100
      5 C07         -3.8200    -4.4840   -10.9690 ca         1 YCS       0.164100
      6 C08         -3.6510    -3.0800   -10.9850 ca         1 YCS      -0.168500
      7 C09         -2.3570    -2.5270   -10.9940 ca         1 YCS      -0.045500
      8 C11         -1.3950    -4.7640   -10.9600 ca         1 YCS      -0.045500
      9 C12         -2.6880    -5.3160   -10.9520 ca         1 YCS      -0.168500
     10 N05         -7.6010    -2.9960   -12.7050 nt         1 YCS      -0.613000
     11 O04         -5.7490    -3.9700   -13.4620 o          1 YCS      -0.569100
     12 O06         -5.0610    -5.0910   -10.9530 os         1 YCS      -0.319100
     13 Br13         0.5240    -2.6130   -10.9930 br         1 YCS      -0.102100
     14 H011        -8.4060    -4.8310   -10.6940 hc         1 YCS       0.055700
     15 H012        -7.4860    -6.1710   -11.4120 hc         1 YCS       0.055700
     16 H021        -6.3340    -3.5240   -10.3790 h1         1 YCS       0.048700
     17 H081        -4.5020    -2.4070   -10.9910 ha         1 YCS       0.123500
     18 H091        -2.2280    -1.4470   -11.0080 ha         1 YCS       0.128000
     19 H111        -0.5230    -5.4150   -10.9480 ha         1 YCS       0.128000
     20 H121        -2.8140    -6.3960   -10.9330 ha         1 YCS       0.123500
     21 H052        -7.7740    -2.5940   -13.6140 hn         1 YCS       0.315500
     22 H051        -8.2340    -2.8190   -11.9380 hn         1 YCS       0.315500
     23 H013        -7.2600    -5.7470    -9.7000 hc         1 YCS       0.055700
@<TRIPOS>BOND
     1     1     7 ar  
     2     1     8 ar  
     3     1    13 1   
     4     2     3 1   
     5     2    14 1   
     6     2    15 1   
     7     2    23 1   
     8     3     4 1   
     9     3    12 1   
    10     3    16 1   
    11     4    10 1   
    12     4    11 2   
    13     5     6 ar  
    14     5     9 ar  
    15     5    12 1   
    16     6     7 ar  
    17     6    17 1   
    18     7    18 1   
    19     8     9 ar  
    20     8    19 1   
    21     9    20 1   
    22    10    21 1   
    23    10    22 1   
@<TRIPOS>SUBSTRUCTURE
     1 YCS         1 TEMP              0 ****  ****    0 ROOT
