@<TRIPOS>MOLECULE
YCT
   62    61     1     0     0
SMALL
abcg2


@<TRIPOS>ATOM
      1 C10          3.5440   -29.5300    -0.0570 c3         1 YCT      -0.077600
      2 C11          2.9910   -29.6030     2.4020 c3         1 YCT       0.259600
      3 C20          9.4810   -35.3180    -3.9280 c3         1 YCT       0.101000
      4 O01          6.7780   -34.5510    -3.9530 o          1 YCT      -0.620100
      5 C02          7.4070   -34.4900    -2.8950 c          1 YCT       0.598100
      6 C03          6.7450   -34.0180    -1.6160 c3         1 YCT      -0.183400
      7 C04          6.1520   -32.6130    -1.7900 c3         1 YCT       0.115000
      8 N05          5.3310   -32.2200    -0.6640 ns         1 YCT      -0.506900
      9 C06          5.7710   -31.5080     0.3850 c          1 YCT       0.560100
     10 C07          4.7090   -31.2240     1.4600 c3         1 YCT       0.110300
     11 C08          4.1010   -29.7980     1.3440 c3         1 YCT      -0.052000
     12 C09          5.1960   -28.7690     1.6690 c3         1 YCT      -0.077600
     13 O12          1.7420   -30.1250     2.0020 os         1 YCT      -0.580400
     14 P13          0.3380   -29.4630     2.6370 p5         1 YCT       1.273900
     15 O15         -0.7310   -30.2680     1.9100 o          1 YCT      -0.930500
     16 O16          0.3690   -27.9820     2.2660 o          1 YCT      -0.930500
     17 O17          3.6670   -32.1970     1.4090 oh         1 YCT      -0.593000
     18 O18          6.9280   -31.0950     0.4950 o          1 YCT      -0.656100
     19 N19          8.7100   -34.8220    -2.8020 ns         1 YCT      -0.510900
     20 C21          9.5330   -36.8290    -3.9960 c3         1 YCT       0.138600
     21 O22         10.2840   -37.2890    -2.8480 os         1 YCT      -0.454100
     22 C23         10.4330   -38.6110    -2.6980 c          1 YCT       0.548100
     23 C24         11.3390   -38.9390    -1.5160 c3         1 YCT       0.112500
     24 C25         12.7940   -38.7510    -1.9800 c3         1 YCT      -0.063400
     25 C26         13.8540   -38.8950    -0.8820 c3         1 YCT      -0.056700
     26 C27         13.6880   -37.8480     0.2200 c3         1 YCT      -0.088100
     27 C28         15.2490   -38.8110    -1.5040 c3         1 YCT      -0.088100
     28 N29         11.1290   -40.2760    -0.9800 n8         1 YCT      -0.988200
     29 O30          9.9330   -39.4300    -3.4380 o          1 YCT      -0.498000
     30 H1           2.8300   -30.2950    -0.3550 hc         1 YCT       0.029033
     31 H2           3.0290   -28.5670    -0.0700 hc         1 YCT       0.029033
     32 H3           4.3470   -29.4940    -0.7960 hc         1 YCT       0.029033
     33 H4           3.3120   -30.0570     3.3490 h1         1 YCT       0.003200
     34 H5           2.8920   -28.5250     2.5720 h1         1 YCT       0.003200
     35 H6          10.4930   -34.9160    -3.8620 h1         1 YCT       0.066700
     36 H7           9.0230   -34.9480    -4.8430 h1         1 YCT       0.066700
     37 H8           5.9360   -34.7190    -1.3950 hc         1 YCT       0.065200
     38 H9           7.4390   -34.0280    -0.7750 hc         1 YCT       0.065200
     39 H10          6.9510   -31.8820    -1.9050 h1         1 YCT       0.061700
     40 H11          5.5340   -32.5900    -2.6870 h1         1 YCT       0.061700
     41 H12          4.3770   -32.5450    -0.6210 hn         1 YCT       0.346500
     42 H13          5.2270   -31.2840     2.4220 h1         1 YCT       0.044700
     43 H14          5.5400   -28.8760     2.7010 hc         1 YCT       0.029033
     44 H15          6.0570   -28.8810     1.0140 hc         1 YCT       0.029033
     45 H16          4.7950   -27.7610     1.5490 hc         1 YCT       0.029033
     46 H19          4.0230   -33.0350     1.7310 ho         1 YCT       0.404000
     47 H20          9.1590   -34.7750    -1.9010 hn         1 YCT       0.323500
     48 H21          8.5340   -37.2640    -3.9680 h1         1 YCT       0.059700
     49 H22         10.0400   -37.1550    -4.9050 h1         1 YCT       0.059700
     50 H23         11.1150   -38.2120    -0.7340 h1         1 YCT       0.091700
     51 H24         12.8900   -37.7610    -2.4350 hc         1 YCT       0.046200
     52 H25         12.9920   -39.4840    -2.7690 hc         1 YCT       0.046200
     53 H26         13.7410   -39.8860    -0.4320 hc         1 YCT       0.061700
     54 H27         12.7320   -37.9470     0.7370 hc         1 YCT       0.032533
     55 H28         14.4790   -37.9450     0.9660 hc         1 YCT       0.032533
     56 H29         13.7420   -36.8380    -0.1990 hc         1 YCT       0.032533
     57 H30         15.3860   -39.5750    -2.2730 hc         1 YCT       0.032533
     58 H31         15.4060   -37.8340    -1.9700 hc         1 YCT       0.032533
     59 H32         16.0240   -38.9490    -0.7470 hc         1 YCT       0.032533
     60 H33         10.1640   -40.3880    -0.6870 hn         1 YCT       0.409000
     61 H34         11.2920   -40.9660    -1.7070 hn         1 YCT       0.409000
     62 O1           0.4000   -29.7100     4.1440 o          1 YCT      -0.930500
@<TRIPOS>BOND
     1     1    11 1   
     2     1    30 1   
     3     1    31 1   
     4     1    32 1   
     5     2    11 1   
     6     2    13 1   
     7     2    33 1   
     8     2    34 1   
     9     3    19 1   
    10     3    20 1   
    11     3    35 1   
    12     3    36 1   
    13     4     5 2   
    14     5     6 1   
    15     5    19 1   
    16     6     7 1   
    17     6    37 1   
    18     6    38 1   
    19     7     8 1   
    20     7    39 1   
    21     7    40 1   
    22     8     9 1   
    23     8    41 1   
    24     9    10 1   
    25     9    18 2   
    26    10    11 1   
    27    10    17 1   
    28    10    42 1   
    29    11    12 1   
    30    12    43 1   
    31    12    44 1   
    32    12    45 1   
    33    13    14 1   
    34    14    15 1   
    35    14    16 1   
    36    14    62 1   
    37    17    46 1   
    38    19    47 1   
    39    20    21 1   
    40    20    48 1   
    41    20    49 1   
    42    21    22 1   
    43    22    23 1   
    44    22    29 2   
    45    23    24 1   
    46    23    28 1   
    47    23    50 1   
    48    24    25 1   
    49    24    51 1   
    50    24    52 1   
    51    25    26 1   
    52    25    27 1   
    53    25    53 1   
    54    26    54 1   
    55    26    55 1   
    56    26    56 1   
    57    27    57 1   
    58    27    58 1   
    59    27    59 1   
    60    28    60 1   
    61    28    61 1   
@<TRIPOS>SUBSTRUCTURE
     1 YCT         1 TEMP              0 ****  ****    0 ROOT
