@<TRIPOS>MOLECULE
YCT
   62    61     1     0     0
SMALL
No Charge or Current Charge


@<TRIPOS>ATOM
      1 C10          3.2020   -30.0330     0.1640 c3         1 YCT      -0.077600
      2 C11          3.7770   -29.6700     2.6530 c3         1 YCT       0.259600
      3 C20          9.7200   -34.9430    -4.3540 c3         1 YCT       0.101000
      4 O01          6.8530   -35.0590    -4.2690 o          1 YCT      -0.620100
      5 C02          7.4540   -34.6450    -3.2890 c          1 YCT       0.598100
      6 C03          6.7420   -34.2340    -2.0040 c3         1 YCT      -0.183400
      7 C04          6.0240   -32.8860    -2.1930 c3         1 YCT       0.115000
      8 N05          5.3400   -32.4570    -0.9720 ns         1 YCT      -0.506900
      9 C06          5.9450   -31.8450     0.1070 c          1 YCT       0.560100
     10 C07          4.9950   -31.5250     1.3130 c3         1 YCT       0.110300
     11 C08          4.3250   -30.0950     1.2430 c3         1 YCT      -0.052000
     12 C09          5.4000   -29.0330     0.8600 c3         1 YCT      -0.077600
     13 O12          2.6210   -30.4320     3.0330 os         1 YCT      -0.580400
     14 P13          1.3090   -29.6740     3.5760 p5         1 YCT       1.273900
     15 O15          0.2760   -30.6890     3.9190 o          1 YCT      -0.930500
     16 O16          0.7680   -28.7600     2.5330 o          1 YCT      -0.930500
     17 O17          4.0080   -32.5750     1.4850 oh         1 YCT      -0.593000
     18 O18          7.1530   -31.6360     0.1300 o          1 YCT      -0.656100
     19 N19          8.8250   -34.5430    -3.2570 ns         1 YCT      -0.510900
     20 C21          9.8340   -36.4750    -4.5230 c3         1 YCT       0.138600
     21 O22         10.3490   -37.0300    -3.2960 os         1 YCT      -0.454100
     22 C23         10.5290   -38.3890    -3.2250 c          1 YCT       0.548100
     23 C24         11.0840   -38.8350    -1.8260 c3         1 YCT       0.112500
     24 C25         12.5630   -38.3820    -1.6550 c3         1 YCT      -0.063400
     25 C26         13.1700   -38.5450    -0.2300 c3         1 YCT      -0.056700
     26 C27         12.4270   -37.7070     0.8390 c3         1 YCT      -0.088100
     27 C28         14.6790   -38.2060    -0.2340 c3         1 YCT      -0.088100
     28 N29         10.9370   -40.3030    -1.5180 n8         1 YCT      -0.988200
     29 O30         10.2710   -39.1640    -4.1400 o          1 YCT      -0.498000
     30 H1           2.4020   -30.7540     0.3670 hc         1 YCT       0.029033
     31 H2           2.7500   -29.0340     0.1320 hc         1 YCT       0.029033
     32 H3           3.6000   -30.2470    -0.8350 hc         1 YCT       0.029033
     33 H4           4.5710   -29.8010     3.4010 h1         1 YCT       0.003200
     34 H5           3.5380   -28.5980     2.6280 h1         1 YCT       0.003200
     35 H6          10.7190   -34.5290    -4.1630 h1         1 YCT       0.066700
     36 H7           9.3530   -34.5050    -5.2910 h1         1 YCT       0.066700
     37 H8           5.9930   -34.9950    -1.7540 hc         1 YCT       0.065200
     38 H9           7.4650   -34.1390    -1.1850 hc         1 YCT       0.065200
     39 H10          6.7500   -32.1160    -2.4870 h1         1 YCT       0.061700
     40 H11          5.2820   -32.9730    -2.9980 h1         1 YCT       0.061700
     41 H12          4.3440   -32.6300    -0.8790 hn         1 YCT       0.346500
     42 H13          5.6540   -31.5210     2.1920 h1         1 YCT       0.044700
     43 H14          6.2500   -29.0690     1.5520 hc         1 YCT       0.029033
     44 H15          5.7780   -29.1860    -0.1570 hc         1 YCT       0.029033
     45 H16          4.9810   -28.0190     0.8980 hc         1 YCT       0.029033
     46 H19          4.4750   -33.3650     1.8300 ho         1 YCT       0.404000
     47 H20          9.2380   -34.2100    -2.3940 hn         1 YCT       0.323500
     48 H21          8.8460   -36.8930    -4.7580 h1         1 YCT       0.059700
     49 H22         10.5070   -36.6940    -5.3630 h1         1 YCT       0.059700
     50 H23         10.4760   -38.2770    -1.1000 h1         1 YCT       0.091700
     51 H24         12.6440   -37.3260    -1.9420 hc         1 YCT       0.046200
     52 H25         13.1790   -38.9380    -2.3730 hc         1 YCT       0.046200
     53 H26         13.0840   -39.5990     0.0590 hc         1 YCT       0.061700
     54 H27         11.3880   -38.0370     0.9510 hc         1 YCT       0.032533
     55 H28         12.9110   -37.8130     1.8170 hc         1 YCT       0.032533
     56 H29         12.4260   -36.6430     0.5720 hc         1 YCT       0.032533
     57 H30         15.2180   -38.8380    -0.9500 hc         1 YCT       0.032533
     58 H31         14.8440   -37.1570    -0.5100 hc         1 YCT       0.032533
     59 H32         15.1170   -38.3720     0.7580 hc         1 YCT       0.032533
     60 H33          9.9500   -40.5710    -1.6230 hn         1 YCT       0.409000
     61 H34         11.3990   -40.8430    -2.2610 hn         1 YCT       0.409000
     62 O1           1.6540   -28.9010     4.8000 o          1 YCT      -0.930500
@<TRIPOS>BOND
     1     1    11 1   
     2     1    30 1   
     3     1    31 1   
     4     1    32 1   
     5     2    11 1   
     6     2    13 1   
     7     2    33 1   
     8     2    34 1   
     9     3    19 1   
    10     3    20 1   
    11     3    35 1   
    12     3    36 1   
    13     4     5 2   
    14     5     6 1   
    15     5    19 1   
    16     6     7 1   
    17     6    37 1   
    18     6    38 1   
    19     7     8 1   
    20     7    39 1   
    21     7    40 1   
    22     8     9 1   
    23     8    41 1   
    24     9    10 1   
    25     9    18 2   
    26    10    11 1   
    27    10    17 1   
    28    10    42 1   
    29    11    12 1   
    30    12    43 1   
    31    12    44 1   
    32    12    45 1   
    33    13    14 1   
    34    14    15 1   
    35    14    16 1   
    36    14    62 1   
    37    17    46 1   
    38    19    47 1   
    39    20    21 1   
    40    20    48 1   
    41    20    49 1   
    42    21    22 1   
    43    22    23 1   
    44    22    29 2   
    45    23    24 1   
    46    23    28 1   
    47    23    50 1   
    48    24    25 1   
    49    24    51 1   
    50    24    52 1   
    51    25    26 1   
    52    25    27 1   
    53    25    53 1   
    54    26    54 1   
    55    26    55 1   
    56    26    56 1   
    57    27    57 1   
    58    27    58 1   
    59    27    59 1   
    60    28    60 1   
    61    28    61 1   
@<TRIPOS>SUBSTRUCTURE
     1 YCT         1 TEMP              0 ****  ****    0 ROOT
