@<TRIPOS>MOLECULE
YCU
   53    54     1     0     0
SMALL
abcg2


@<TRIPOS>ATOM
      1 S1          -1.3800     3.6970     0.2250 sy         1 YCU       1.237300
      2 C2          -2.1700     2.2170     0.6890 cc         1 YCU      -0.515500
      3 N3           0.2400     3.4630     0.5920 ns         1 YCU      -0.581300
      4 S4          -1.9570     0.7230    -0.1290 ss         1 YCU       0.445000
      5 C5           0.9710     2.4610    -0.0410 c          1 YCU       0.682100
      6 C6           2.9440     1.0750     0.3300 ca         1 YCU       0.553900
      7 C7           2.9950    -1.1450    -0.1000 ca         1 YCU       0.571900
      8 C8          -3.0100     2.1010     1.7620 cd         1 YCU       0.005000
      9 N9           2.2880    -0.0440     0.0650 nb         1 YCU      -0.725000
     10 C10         -3.0070    -0.0680     0.9710 cc         1 YCU      -0.189300
     11 N11          2.1690     2.2180     0.5580 ns         1 YCU      -0.340900
     12 N12          2.3330    -2.3170    -0.4190 ns         1 YCU      -0.348900
     13 C13         -3.5050     0.7840     1.9250 cd         1 YCU      -0.133300
     14 C14          0.9960    -2.6210    -0.1900 c          1 YCU       0.668100
     15 C15          4.3180     1.1700     0.4410 ca         1 YCU      -0.275000
     16 C16          4.3910    -1.1920    -0.0010 ca         1 YCU      -0.340000
     17 O17         -1.5020     3.8950    -1.2000 o          1 YCU      -0.526000
     18 O18         -1.8070     4.7300     1.1470 o          1 YCU      -0.526000
     19 C19          5.0560    -0.0050     0.2750 ca         1 YCU       0.229100
     20 O20          0.5460     1.8950    -1.0200 o          1 YCU      -0.550100
     21 O21          0.2560    -1.9620     0.5150 o          1 YCU      -0.583100
     22 N22          0.6110    -3.7610    -0.8070 ns         1 YCU      -0.529900
     23 C23         -3.2650    -1.5300     0.8190 c3         1 YCU      -0.026100
     24 O24          6.3800     0.1050     0.3950 os         1 YCU      -0.331100
     25 C25         -4.4360     0.3750     3.0240 c3         1 YCU      -0.024800
     26 O26         -4.4480    -3.2080    -0.3720 os         1 YCU      -0.460000
     27 C27         -4.3010    -1.8170    -0.2610 c3         1 YCU       0.158600
     28 C28         -0.7350    -4.2650    -0.6870 c3         1 YCU       0.104300
     29 C29          7.1810    -1.0490     0.2080 c3         1 YCU       0.147900
     30 C30         -5.3840    -3.5750    -1.3530 c3         1 YCU       0.146900
     31 H3           0.4860     3.7390     1.5360 hn         1 YCU       0.332500
     32 H8          -3.2690     2.9220     2.4150 ha         1 YCU       0.148000
     33 H11          2.5530     2.9120     1.1820 hn         1 YCU       0.169000
     34 H15          4.8100     2.1120     0.6420 ha         1 YCU       0.142000
     35 H12          2.9220    -3.0720    -0.7340 hn         1 YCU       0.150000
     36 H16          4.9130    -2.1310    -0.1260 ha         1 YCU       0.126000
     37 H231        -2.3310    -2.0410     0.5750 hc         1 YCU       0.074200
     38 H232        -3.6100    -1.9300     1.7750 hc         1 YCU       0.074200
     39 H251        -5.3040    -0.1630     2.6420 hc         1 YCU       0.041367
     40 H252        -3.9400    -0.2770     3.7450 hc         1 YCU       0.041367
     41 H253        -4.8010     1.2460     3.5660 hc         1 YCU       0.041367
     42 H22          1.2000    -4.1680    -1.5150 hn         1 YCU       0.310500
     43 H281        -1.4690    -3.6370    -1.1960 h1         1 YCU       0.043700
     44 H282        -0.7680    -5.2550    -1.1320 h1         1 YCU       0.043700
     45 H283        -1.0320    -4.3530     0.3570 h1         1 YCU       0.043700
     46 H271        -5.2550    -1.3360    -0.0010 h1         1 YCU       0.026700
     47 H272        -3.9760    -1.3800    -1.2170 h1         1 YCU       0.026700
     48 H291         6.9620    -1.8180     0.9520 h1         1 YCU       0.045700
     49 H292         7.0550    -1.4720    -0.7910 h1         1 YCU       0.045700
     50 H293         8.2120    -0.7280     0.3270 h1         1 YCU       0.045700
     51 H301        -6.3870    -3.1930    -1.1280 h1         1 YCU       0.029033
     52 H302        -5.1020    -3.2110    -2.3480 h1         1 YCU       0.029033
     53 H303        -5.4290    -4.6630    -1.3850 h1         1 YCU       0.029033
@<TRIPOS>BOND
     1     1     2 1   
     2     1     3 1   
     3     1    17 2   
     4     1    18 2   
     5     2     4 1   
     6     2     8 2   
     7     3     5 1   
     8     3    31 1   
     9     4    10 1   
    10     5    11 1   
    11     5    20 2   
    12     6     9 ar  
    13     6    11 1   
    14     6    15 ar  
    15     7     9 ar  
    16     7    12 1   
    17     7    16 ar  
    18     8    13 1   
    19     8    32 1   
    20    10    13 2   
    21    10    23 1   
    22    11    33 1   
    23    12    14 1   
    24    12    35 1   
    25    13    25 1   
    26    14    21 2   
    27    14    22 1   
    28    15    19 ar  
    29    15    34 1   
    30    16    19 ar  
    31    16    36 1   
    32    19    24 1   
    33    22    28 1   
    34    22    42 1   
    35    23    27 1   
    36    23    37 1   
    37    23    38 1   
    38    24    29 1   
    39    25    39 1   
    40    25    40 1   
    41    25    41 1   
    42    26    27 1   
    43    26    30 1   
    44    27    46 1   
    45    27    47 1   
    46    28    43 1   
    47    28    44 1   
    48    28    45 1   
    49    29    48 1   
    50    29    49 1   
    51    29    50 1   
    52    30    51 1   
    53    30    52 1   
    54    30    53 1   
@<TRIPOS>SUBSTRUCTURE
     1 YCU         1 TEMP              0 ****  ****    0 ROOT
