@<TRIPOS>MOLECULE
YCU
   53    54     1     0     0
SMALL
No Charge or Current Charge


@<TRIPOS>ATOM
      1 S1          -1.4030     3.6060    -0.0760 sy         1 YCU       1.237300
      2 C2          -2.3160     2.1750     0.4130 cc         1 YCU      -0.515500
      3 N3           0.0900     3.0670     0.4380 ns         1 YCU      -0.581300
      4 S4          -2.6780     0.9200    -0.7420 ss         1 YCU       0.445000
      5 C5           0.8650     2.1100    -0.1240 c          1 YCU       0.682100
      6 C6           3.0110     0.9440     0.4110 ca         1 YCU       0.553900
      7 C7           3.5250    -1.2470    -0.0240 ca         1 YCU       0.571900
      8 C8          -2.8100     1.8840     1.6590 cd         1 YCU       0.005000
      9 N9           2.5920    -0.2900     0.0910 nb         1 YCU      -0.725000
     10 C10         -3.5080    -0.0130     0.5080 cc         1 YCU      -0.189300
     11 N11          2.0010     1.8880     0.6070 ns         1 YCU      -0.340900
     12 N12          3.0610    -2.4930    -0.4450 ns         1 YCU      -0.348900
     13 C13         -3.4930     0.6360     1.7250 cd         1 YCU      -0.133300
     14 C14          1.9340    -3.1760    -0.0730 c          1 YCU       0.668100
     15 C15          4.3460     1.2630     0.6590 ca         1 YCU      -0.275000
     16 C16          4.8930    -1.0130     0.1350 ca         1 YCU      -0.340000
     17 O17         -1.3950     3.6990    -1.5390 o          1 YCU      -0.526000
     18 O18         -1.7690     4.7220     0.8000 o          1 YCU      -0.526000
     19 C19          5.3140     0.2720     0.5030 ca         1 YCU       0.229100
     20 O20          0.5920     1.5360    -1.1640 o          1 YCU      -0.550100
     21 O21          1.1450    -2.8150     0.7870 o          1 YCU      -0.583100
     22 N22          1.7920    -4.3530    -0.7610 ns         1 YCU      -0.529900
     23 C23         -4.1250    -1.3510     0.1800 c3         1 YCU      -0.026100
     24 O24          6.6340     0.5990     0.7170 os         1 YCU      -0.331100
     25 C25         -4.1180     0.1090     2.9930 c3         1 YCU      -0.024800
     26 O26         -6.0610    -2.5510    -0.6040 os         1 YCU      -0.460000
     27 C27         -5.5800    -1.2290    -0.3100 c3         1 YCU       0.158600
     28 C28          0.6870    -5.2930    -0.5640 c3         1 YCU       0.104300
     29 C29          7.6910    -0.3680     0.5780 c3         1 YCU       0.147900
     30 C30         -7.4190    -2.5990    -1.0720 c3         1 YCU       0.146900
     31 H3           0.3510     3.4840     1.3140 hn         1 YCU       0.332500
     32 H8          -2.6900     2.5410     2.5180 ha         1 YCU       0.148000
     33 H11          2.1400     2.4870     1.4070 hn         1 YCU       0.169000
     34 H15          4.6270     2.2690     0.9520 ha         1 YCU       0.142000
     35 H12          3.6570    -2.9550    -1.1160 hn         1 YCU       0.150000
     36 H16          5.5910    -1.8300    -0.0140 ha         1 YCU       0.126000
     37 H231        -3.5320    -1.8530    -0.5940 hc         1 YCU       0.074200
     38 H232        -4.0980    -2.0050     1.0590 hc         1 YCU       0.074200
     39 H251        -5.1700    -0.1530     2.8340 hc         1 YCU       0.041367
     40 H252        -3.5950    -0.7890     3.3430 hc         1 YCU       0.041367
     41 H253        -4.0790     0.8520     3.7980 hc         1 YCU       0.041367
     42 H22          2.4990    -4.5720    -1.4530 hn         1 YCU       0.310500
     43 H281        -0.2670    -4.7920    -0.7750 h1         1 YCU       0.043700
     44 H282         0.8050    -6.1470    -1.2430 h1         1 YCU       0.043700
     45 H283         0.6880    -5.6530     0.4730 h1         1 YCU       0.043700
     46 H271        -6.1900    -0.7570     0.4720 h1         1 YCU       0.026700
     47 H272        -5.6130    -0.5950    -1.2060 h1         1 YCU       0.026700
     48 H291         7.5510    -1.2020     1.2760 h1         1 YCU       0.045700
     49 H292         7.7230    -0.7650    -0.4450 h1         1 YCU       0.045700
     50 H293         8.6610     0.0970     0.7930 h1         1 YCU       0.045700
     51 H301        -8.1050    -2.1880    -0.3210 h1         1 YCU       0.029033
     52 H302        -7.5320    -2.0230    -2.0000 h1         1 YCU       0.029033
     53 H303        -7.7160    -3.6360    -1.2750 h1         1 YCU       0.029033
@<TRIPOS>BOND
     1     1     2 1   
     2     1     3 1   
     3     1    17 2   
     4     1    18 2   
     5     2     4 1   
     6     2     8 2   
     7     3     5 1   
     8     3    31 1   
     9     4    10 1   
    10     5    11 1   
    11     5    20 2   
    12     6     9 ar  
    13     6    11 1   
    14     6    15 ar  
    15     7     9 ar  
    16     7    12 1   
    17     7    16 ar  
    18     8    13 1   
    19     8    32 1   
    20    10    13 2   
    21    10    23 1   
    22    11    33 1   
    23    12    14 1   
    24    12    35 1   
    25    13    25 1   
    26    14    21 2   
    27    14    22 1   
    28    15    19 ar  
    29    15    34 1   
    30    16    19 ar  
    31    16    36 1   
    32    19    24 1   
    33    22    28 1   
    34    22    42 1   
    35    23    27 1   
    36    23    37 1   
    37    23    38 1   
    38    24    29 1   
    39    25    39 1   
    40    25    40 1   
    41    25    41 1   
    42    26    27 1   
    43    26    30 1   
    44    27    46 1   
    45    27    47 1   
    46    28    43 1   
    47    28    44 1   
    48    28    45 1   
    49    29    48 1   
    50    29    49 1   
    51    29    50 1   
    52    30    51 1   
    53    30    52 1   
    54    30    53 1   
@<TRIPOS>SUBSTRUCTURE
     1 YCU         1 TEMP              0 ****  ****    0 ROOT
