@<TRIPOS>MOLECULE
YCV
   45    47     1     0     0
SMALL
No Charge or Current Charge


@<TRIPOS>ATOM
      1 N1           6.0800     1.3910    17.2430 nc         1 YCV      -0.510100
      2 C7           4.4080     2.9470    20.0930 ca         1 YCV      -0.130000
      3 C8           5.1280     2.1910    19.1610 ca         1 YCV      -0.031200
      4 N2           9.5850    -4.0310    26.1640 n          1 YCV      -0.418800
      5 C9           6.4960     0.6660    18.2950 cd         1 YCV       0.357800
      6 O1           6.8960    -4.1530    19.1760 o          1 YCV      -0.527100
      7 C1           8.5780    -1.4020    22.8140 ca         1 YCV       0.075100
      8 C5           5.3260     1.4960    21.8370 ca         1 YCV      -0.141000
      9 C6           4.5130     2.5880    21.4510 ca         1 YCV      -0.072000
     10 C4           6.0480     0.7330    20.8780 cp         1 YCV       0.041000
     11 C3           6.9050    -0.4210    21.2870 cp         1 YCV      -0.033000
     12 O3           7.8000    -4.1700    24.7320 o          1 YCV      -0.576100
     13 C2           7.7590    -0.3230    22.4060 ca         1 YCV      -0.137000
     14 N            5.2130     2.3500    17.7920 na         1 YCV      -0.076400
     15 C            9.4800    -0.0710    24.7130 c3         1 YCV       0.151900
     16 C10          5.9090     1.1380    19.5310 ca         1 YCV      -0.220900
     17 C11          6.8760    -1.6390    20.5750 ca         1 YCV      -0.055000
     18 C12          7.6790    -2.7340    20.9560 ca         1 YCV      -0.192600
     19 C13          7.6100    -4.0160    20.1660 c          1 YCV       0.587500
     20 C14          8.5310    -2.6290    22.0790 ca         1 YCV       0.144100
     21 C15          9.9750    -3.9930    23.6400 c3         1 YCV       0.098600
     22 C16          9.0170    -4.0730    24.8660 c          1 YCV       0.590100
     23 C17          8.7150    -4.0720    27.3620 c3         1 YCV       0.088300
     24 C18         11.0490    -3.9590    26.3740 c3         1 YCV       0.088300
     25 O2           9.2850    -3.7590    22.3850 os         1 YCV      -0.327100
     26 H2           3.7910     3.7880    19.7820 ha         1 YCV       0.121000
     27 H3           7.1970    -0.1420    18.1270 h4         1 YCV       0.054800
     28 H4           5.3880     1.2310    22.8900 ha         1 YCV       0.115000
     29 H5           3.9680     3.1520    22.2050 ha         1 YCV       0.115000
     30 H6           7.7810     0.6220    22.9390 ha         1 YCV       0.122000
     31 H7          10.2080    -0.1990    25.5240 h1         1 YCV       0.044367
     32 H8           9.7850     0.7990    24.1190 h1         1 YCV       0.044367
     33 H9           8.5010     0.1330    25.1670 h1         1 YCV       0.044367
     34 H10          6.2030    -1.7340    19.7260 ha         1 YCV       0.145000
     35 H11          8.2430    -4.8620    20.5130 h4         1 YCV       0.013200
     36 H12         10.5010    -4.9530    23.5960 h1         1 YCV       0.066700
     37 H13         10.7400    -3.2300    23.8160 h1         1 YCV       0.066700
     38 H14          9.2960    -3.8870    28.2740 h1         1 YCV       0.041533
     39 H15          7.9370    -3.3010    27.2820 h1         1 YCV       0.041533
     40 H16          8.2370    -5.0570    27.4370 h1         1 YCV       0.041533
     41 H17         11.2960    -4.0920    27.4350 h1         1 YCV       0.041533
     42 H18         11.5510    -4.7500    25.8020 h1         1 YCV       0.041533
     43 H19         11.4230    -2.9800    26.0470 h1         1 YCV       0.041533
     44 H1           4.7360     3.0510    17.2250 hn         1 YCV       0.377000
     45 O            9.4290    -1.2570    23.8990 os         1 YCV      -0.353100
@<TRIPOS>BOND
     1     1     5 2   
     2     1    14 1   
     3     2     3 ar  
     4     2     9 ar  
     5     2    26 1   
     6     3    14 1   
     7     3    16 ar  
     8     4    22 1   
     9     4    23 1   
    10     4    24 1   
    11     5    16 1   
    12     5    27 1   
    13     6    19 2   
    14     7    13 ar  
    15     7    20 ar  
    16     7    45 1   
    17     8     9 ar  
    18     8    10 ar  
    19     8    28 1   
    20     9    29 1   
    21    10    11 1   
    22    10    16 ar  
    23    11    13 ar  
    24    11    17 ar  
    25    12    22 2   
    26    13    30 1   
    27    14    44 1   
    28    15    31 1   
    29    15    32 1   
    30    15    33 1   
    31    15    45 1   
    32    17    18 ar  
    33    17    34 1   
    34    18    19 1   
    35    18    20 ar  
    36    19    35 1   
    37    20    25 1   
    38    21    22 1   
    39    21    25 1   
    40    21    36 1   
    41    21    37 1   
    42    23    38 1   
    43    23    39 1   
    44    23    40 1   
    45    24    41 1   
    46    24    42 1   
    47    24    43 1   
@<TRIPOS>SUBSTRUCTURE
     1 YCV         1 TEMP              0 ****  ****    0 ROOT
