@<TRIPOS>MOLECULE
YCV
   45    47     1     0     0
SMALL
abcg2


@<TRIPOS>ATOM
      1 N1           6.9160     1.4730    17.2960 nc         1 YCV      -0.510100
      2 C7           4.9030     3.1640    19.7880 ca         1 YCV      -0.130000
      3 C8           5.7050     2.3490    18.9810 ca         1 YCV      -0.031200
      4 N2          10.0980    -3.9350    26.0230 n          1 YCV      -0.418800
      5 C9           7.0550     0.6780    18.3410 cd         1 YCV       0.357800
      6 O1           6.8870    -4.1090    19.1440 o          1 YCV      -0.527100
      7 C1           7.7190    -1.6830    23.1990 ca         1 YCV       0.075100
      8 C5           5.3220     1.5790    21.5910 ca         1 YCV      -0.141000
      9 C6           4.7300     2.7570    21.0950 ca         1 YCV      -0.072000
     10 C4           6.1100     0.7560    20.7980 cp         1 YCV       0.041000
     11 C3           6.6970    -0.4890    21.3340 cp         1 YCV      -0.033000
     12 O3           8.0410    -4.7580    25.5170 o          1 YCV      -0.576100
     13 C2           7.2030    -0.5210    22.6450 ca         1 YCV      -0.137000
     14 N            6.0980     2.4780    17.6850 na         1 YCV      -0.076400
     15 C            8.2410    -0.6010    25.2740 c3         1 YCV       0.151900
     16 C10          6.3100     1.1600    19.4570 ca         1 YCV      -0.220900
     17 C11          6.7360    -1.6520    20.5840 ca         1 YCV      -0.055000
     18 C12          7.2720    -2.8320    21.1130 ca         1 YCV      -0.192600
     19 C13          7.3350    -4.0400    20.2760 c          1 YCV       0.587500
     20 C14          7.7660    -2.8620    22.4230 ca         1 YCV       0.144100
     21 C15          9.4160    -4.0820    23.6750 c3         1 YCV       0.098600
     22 C16          9.1160    -4.2740    25.1630 c          1 YCV       0.590100
     23 C17          9.8640    -4.0110    27.4580 c3         1 YCV       0.088300
     24 C18         11.3400    -3.2900    25.6100 c3         1 YCV       0.088300
     25 O2           8.2060    -4.0510    22.9150 os         1 YCV      -0.327100
     26 H2           4.4480     4.0680    19.4050 ha         1 YCV       0.121000
     27 H3           7.6760    -0.2000    18.2690 h4         1 YCV       0.054800
     28 H4           5.1330     1.2990    22.6190 ha         1 YCV       0.115000
     29 H5           4.1170     3.3520    21.7600 ha         1 YCV       0.115000
     30 H6           7.1810     0.3820    23.2360 ha         1 YCV       0.122000
     31 H7           8.6780    -0.9170    26.2170 h1         1 YCV       0.044367
     32 H8           8.8750     0.1560    24.8070 h1         1 YCV       0.044367
     33 H9           7.2440    -0.1920    25.4450 h1         1 YCV       0.044367
     34 H10          6.3380    -1.6800    19.5800 ha         1 YCV       0.145000
     35 H11          7.8320    -4.9100    20.7300 h4         1 YCV       0.013200
     36 H12          9.9790    -4.9470    23.3170 h1         1 YCV       0.066700
     37 H13         10.0020    -3.1880    23.4810 h1         1 YCV       0.066700
     38 H14         10.7110    -4.4990    27.9420 h1         1 YCV       0.041533
     39 H15          9.7500    -3.0080    27.8790 h1         1 YCV       0.041533
     40 H16          8.9590    -4.5800    27.6440 h1         1 YCV       0.041533
     41 H17         12.0840    -3.4560    26.3870 h1         1 YCV       0.041533
     42 H18         11.7260    -3.7180    24.6880 h1         1 YCV       0.041533
     43 H19         11.2090    -2.2110    25.4810 h1         1 YCV       0.041533
     44 H1           5.8640     3.2150    17.0390 hn         1 YCV       0.377000
     45 O            8.1800    -1.7780    24.4690 os         1 YCV      -0.353100
@<TRIPOS>BOND
     1     1     5 2   
     2     1    14 1   
     3     2     3 ar  
     4     2     9 ar  
     5     2    26 1   
     6     3    14 1   
     7     3    16 ar  
     8     4    22 1   
     9     4    23 1   
    10     4    24 1   
    11     5    16 1   
    12     5    27 1   
    13     6    19 2   
    14     7    13 ar  
    15     7    20 ar  
    16     7    45 1   
    17     8     9 ar  
    18     8    10 ar  
    19     8    28 1   
    20     9    29 1   
    21    10    11 1   
    22    10    16 ar  
    23    11    13 ar  
    24    11    17 ar  
    25    12    22 2   
    26    13    30 1   
    27    14    44 1   
    28    15    31 1   
    29    15    32 1   
    30    15    33 1   
    31    15    45 1   
    32    17    18 ar  
    33    17    34 1   
    34    18    19 1   
    35    18    20 ar  
    36    19    35 1   
    37    20    25 1   
    38    21    22 1   
    39    21    25 1   
    40    21    36 1   
    41    21    37 1   
    42    23    38 1   
    43    23    39 1   
    44    23    40 1   
    45    24    41 1   
    46    24    42 1   
    47    24    43 1   
@<TRIPOS>SUBSTRUCTURE
     1 YCV         1 TEMP              0 ****  ****    0 ROOT
