@<TRIPOS>MOLECULE
YCX
   61    62     1     0     0
SMALL
No Charge or Current Charge


@<TRIPOS>ATOM
      1 N1          -8.7740     1.2240   -11.9300 n          1 YCX      -0.326000
      2 N3          -7.7850     2.4020   -13.7510 nc         1 YCX      -0.809100
      3 C4          -7.8120     3.4750   -13.0400 cd         1 YCX       0.775500
      4 C5          -8.3100     3.5540   -11.7280 cd         1 YCX      -0.504600
      5 C6          -8.7990     2.3930   -11.1700 cc         1 YCX       0.062600
      6 O2B         -9.8340    -0.7250    -5.9380 o          1 YCX      -0.855500
      7 PB         -10.5900     0.0380    -4.9050 p5         1 YCX       1.510800
      8 O1B         -9.7180     0.2830    -3.7200 o          1 YCX      -0.855500
      9 O6G        -11.9320    -0.7360    -4.4590 os         1 YCX      -0.594400
     10 C6G        -12.5270    -0.5380    -3.1610 c3         1 YCX       0.240600
     11 C5G        -13.3090     0.8130    -3.0940 c3         1 YCX       0.151300
     12 O5G        -14.4050     0.7830    -4.0450 oh         1 YCX      -0.723000
     13 C4G        -13.8690     1.1000    -1.6610 c3         1 YCX       0.138300
     14 O4G        -12.8090     1.0760    -0.6900 oh         1 YCX      -0.670000
     15 C3G        -14.5810     2.4870    -1.5480 c3         1 YCX       0.153300
     16 O3G        -13.6020     3.5400    -1.5770 oh         1 YCX      -0.695000
     17 C2G        -15.4080     2.6760    -0.2420 c3         1 YCX       0.123300
     18 O2G        -15.8240     4.0520    -0.1360 oh         1 YCX      -0.748000
     19 C1G        -16.6880     1.8020    -0.1830 c3         1 YCX       0.126600
     20 O1G        -17.5300     2.2650     0.8940 oh         1 YCX      -0.744000
     21 O3B        -11.1440     1.4100    -5.4400 os         1 YCX      -0.743800
     22 PA         -12.1670     1.4950    -6.6350 p5         1 YCX       1.484800
     23 O1A        -13.3860     0.6650    -6.4230 o          1 YCX      -0.850500
     24 O2A        -12.5490     2.9220    -6.8370 o          1 YCX      -0.850500
     25 C8         -11.5430    -0.2880    -8.4640 c3         1 YCX       0.224600
     26 C7         -10.3900    -0.6660    -9.4350 c5         1 YCX       0.116300
     27 C3          -8.9420    -0.3750    -8.9280 c5         1 YCX       0.127300
     28 O3          -8.4810    -1.3300    -7.9480 oh         1 YCX      -0.808000
     29 C2          -8.1330    -0.5090   -10.2530 c5         1 YCX       0.128300
     30 O2          -7.7430    -1.8850   -10.3390 oh         1 YCX      -0.742000
     31 C1          -9.2000    -0.0700   -11.3360 c5         1 YCX       0.322700
     32 O4         -10.4680     0.0900   -10.6600 os         1 YCX      -0.463000
     33 N4          -7.3450     4.5490   -13.6390 nv         1 YCX      -1.059200
     34 C9          -8.2530     1.2240   -13.2360 c          1 YCX       0.704400
     35 O7          -8.2000     0.2160   -13.9200 o          1 YCX      -0.599000
     36 H1          -8.3110     4.4900   -11.1840 ha         1 YCX       0.219000
     37 H2          -9.2410     2.2840   -10.1790 h4         1 YCX       0.285000
     38 H4         -13.2210    -1.3610    -2.9400 h1         1 YCX       0.029200
     39 H5         -11.7550    -0.5600    -2.3800 h1         1 YCX       0.029200
     40 H6         -12.6110     1.6270    -3.3350 h1         1 YCX       0.122700
     41 H7         -13.9960     0.6550    -4.9590 ho         1 YCX       0.491000
     42 H8         -14.5950     0.3100    -1.4260 h1         1 YCX       0.019700
     43 H9         -12.4970     2.0130    -0.6510 ho         1 YCX       0.484000
     44 H10        -15.2720     2.6020    -2.3950 h1         1 YCX       0.034700
     45 H11        -14.0800     4.2890    -1.1390 ho         1 YCX       0.502000
     46 H12        -14.7780     2.4060     0.6190 h1         1 YCX       0.077700
     47 H13        -16.6630     3.9730     0.3900 ho         1 YCX       0.512000
     48 H14        -17.2210     1.8670    -1.1430 h1         1 YCX       0.037200
     49 H15        -16.4040     0.7510    -0.0290 h1         1 YCX       0.037200
     50 H16        -18.2900     1.6370     0.9590 ho         1 YCX       0.498000
     51 H18        -12.4900    -0.2860    -9.0220 h1         1 YCX       0.049200
     52 H19        -11.6220    -1.0620    -7.6890 h1         1 YCX       0.049200
     53 H20        -10.5030    -1.7290    -9.6910 h1         1 YCX       0.045700
     54 H21         -8.8640     0.6500    -8.5360 h1         1 YCX       0.080700
     55 H22         -9.0130    -1.1100    -7.0920 ho         1 YCX       0.612000
     56 H23         -7.2480     0.1440   -10.2510 h1         1 YCX       0.069700
     57 H24         -7.8560    -2.1450    -9.3800 ho         1 YCX       0.530000
     58 H25         -9.2850    -0.8230   -12.1290 h2         1 YCX       0.097700
     59 H26         -7.2680     4.4410   -14.6420 hn         1 YCX       0.487000
     60 H27         -7.7130     5.4330   -13.3160 hn         1 YCX       0.487000
     61 O5         -11.2870     1.0060    -7.8890 os         1 YCX      -0.632400
@<TRIPOS>BOND
     1     1     5 1   
     2     1    31 1   
     3     1    34 1   
     4     2     3 2   
     5     2    34 1   
     6     3     4 1   
     7     3    33 1   
     8     4     5 2   
     9     4    36 1   
    10     5    37 1   
    11     6     7 1   
    12     7     8 1   
    13     7     9 1   
    14     7    21 1   
    15     9    10 1   
    16    10    11 1   
    17    10    38 1   
    18    10    39 1   
    19    11    12 1   
    20    11    13 1   
    21    11    40 1   
    22    12    41 1   
    23    13    14 1   
    24    13    15 1   
    25    13    42 1   
    26    14    43 1   
    27    15    16 1   
    28    15    17 1   
    29    15    44 1   
    30    16    45 1   
    31    17    18 1   
    32    17    19 1   
    33    17    46 1   
    34    18    47 1   
    35    19    20 1   
    36    19    48 1   
    37    19    49 1   
    38    20    50 1   
    39    21    22 1   
    40    22    23 1   
    41    22    24 1   
    42    22    61 1   
    43    25    26 1   
    44    25    51 1   
    45    25    52 1   
    46    25    61 1   
    47    26    27 1   
    48    26    32 1   
    49    26    53 1   
    50    27    28 1   
    51    27    29 1   
    52    27    54 1   
    53    28    55 1   
    54    29    30 1   
    55    29    31 1   
    56    29    56 1   
    57    30    57 1   
    58    31    32 1   
    59    31    58 1   
    60    33    59 1   
    61    33    60 1   
    62    34    35 2   
@<TRIPOS>SUBSTRUCTURE
     1 YCX         1 TEMP              0 ****  ****    0 ROOT
