@<TRIPOS>MOLECULE
YCX
   61    62     1     0     0
SMALL
abcg2


@<TRIPOS>ATOM
      1 N1          -8.5790     1.5520   -10.8860 n          1 YCX      -0.326000
      2 N3          -6.7970     3.1180   -10.9670 nc         1 YCX      -0.809100
      3 C4          -7.4730     3.8980   -10.1290 cd         1 YCX       0.775500
      4 C5          -8.7490     3.5290    -9.6110 cd         1 YCX      -0.504600
      5 C6          -9.2620     2.3470   -10.0240 cc         1 YCX       0.062600
      6 O2B        -11.3200    -2.1110    -6.8060 o          1 YCX      -0.855500
      7 PB         -10.9130    -1.0530    -5.8190 p5         1 YCX       1.510800
      8 O1B         -9.5430    -1.0840    -5.2300 o          1 YCX      -0.855500
      9 O6G        -12.0450    -1.0880    -4.6730 os         1 YCX      -0.594400
     10 C6G        -12.0970    -0.0600    -3.6740 c3         1 YCX       0.240600
     11 C5G        -13.5380     0.2030    -3.3040 c3         1 YCX       0.151300
     12 O5G        -14.0100    -0.9100    -2.5480 oh         1 YCX      -0.723000
     13 C4G        -13.6690     1.5320    -2.5370 c3         1 YCX       0.138300
     14 O4G        -13.5420     2.5640    -3.5190 oh         1 YCX      -0.670000
     15 C3G        -14.9940     1.6050    -1.7750 c3         1 YCX       0.153300
     16 O3G        -16.0360     1.1460    -2.6430 oh         1 YCX      -0.695000
     17 C2G        -15.3420     2.9940    -1.2520 c3         1 YCX       0.123300
     18 O2G        -16.6440     2.8680    -0.6650 oh         1 YCX      -0.748000
     19 C1G        -14.3620     3.5290    -0.2250 c3         1 YCX       0.126600
     20 O1G        -14.8640     4.8030     0.1920 oh         1 YCX      -0.744000
     21 O3B        -11.0750     0.4220    -6.4740 os         1 YCX      -0.743800
     22 PA         -12.2800     1.1990    -7.2650 p5         1 YCX       1.484800
     23 O1A        -13.5890     0.5470    -6.9810 o          1 YCX      -0.850500
     24 O2A        -12.0580     2.6510    -7.0130 o          1 YCX      -0.850500
     25 C8         -12.1820    -0.2390    -9.5260 c3         1 YCX       0.224600
     26 C7         -10.9770    -0.7390   -10.2860 c5         1 YCX       0.116300
     27 C3          -9.7390    -1.0650    -9.4430 c5         1 YCX       0.127300
     28 O3          -9.7450    -2.3630    -8.9030 oh         1 YCX      -0.808000
     29 C2          -8.6130    -0.9090   -10.4640 c5         1 YCX       0.128300
     30 O2          -8.5130    -2.0680   -11.2810 oh         1 YCX      -0.742000
     31 C1          -9.1180     0.2490   -11.3300 c5         1 YCX       0.322700
     32 O4         -10.5270     0.2540   -11.2340 os         1 YCX      -0.463000
     33 N4          -6.9180     5.0670    -9.7730 nv         1 YCX      -1.059200
     34 C9          -7.3050     1.9250   -11.3600 c          1 YCX       0.704400
     35 O7          -6.7030     1.1500   -12.1110 o          1 YCX      -0.599000
     36 H1          -9.2900     4.1640    -8.9270 ha         1 YCX       0.219000
     37 H2         -10.2260     1.9860    -9.7000 h4         1 YCX       0.285000
     38 H4         -11.5410    -0.3890    -2.7910 h1         1 YCX       0.029200
     39 H5         -11.6500     0.8590    -4.0510 h1         1 YCX       0.029200
     40 H6         -14.1140     0.3060    -4.2270 h1         1 YCX       0.122700
     41 H7         -14.9730    -0.8360    -2.5100 ho         1 YCX       0.491000
     42 H8         -12.8610     1.6110    -1.8040 h1         1 YCX       0.019700
     43 H9         -13.0370     3.2960    -3.1490 ho         1 YCX       0.484000
     44 H10        -14.9180     0.9310    -0.9140 h1         1 YCX       0.034700
     45 H11        -16.8750     1.3390    -2.2020 ho         1 YCX       0.502000
     46 H12        -15.3930     3.6910    -2.0960 h1         1 YCX       0.077700
     47 H13        -16.8670     3.7260    -0.2820 ho         1 YCX       0.512000
     48 H14        -14.3040     2.8400     0.6230 h1         1 YCX       0.037200
     49 H15        -13.3640     3.6370    -0.6600 h1         1 YCX       0.037200
     50 H16        -14.4510     5.0400     1.0300 ho         1 YCX       0.498000
     51 H18        -12.9970    -0.0220   -10.2190 h1         1 YCX       0.049200
     52 H19        -12.5050    -1.0240    -8.8420 h1         1 YCX       0.049200
     53 H20        -11.2750    -1.6420   -10.8290 h1         1 YCX       0.045700
     54 H21         -9.6180    -0.3130    -8.6580 h1         1 YCX       0.080700
     55 H22        -10.3230    -2.3460    -8.0900 ho         1 YCX       0.612000
     56 H23         -7.6510    -0.6760   -10.0030 h1         1 YCX       0.069700
     57 H24         -8.7050    -2.8260   -10.7080 ho         1 YCX       0.530000
     58 H25         -8.8090     0.1220   -12.3640 h2         1 YCX       0.097700
     59 H26         -6.0160     5.3250   -10.1380 hn         1 YCX       0.487000
     60 H27         -7.3840     5.6940    -9.1400 hn         1 YCX       0.487000
     61 O5         -11.8630     0.9600    -8.8160 os         1 YCX      -0.632400
@<TRIPOS>BOND
     1     1     5 1   
     2     1    31 1   
     3     1    34 1   
     4     2     3 2   
     5     2    34 1   
     6     3     4 1   
     7     3    33 1   
     8     4     5 2   
     9     4    36 1   
    10     5    37 1   
    11     6     7 1   
    12     7     8 1   
    13     7     9 1   
    14     7    21 1   
    15     9    10 1   
    16    10    11 1   
    17    10    38 1   
    18    10    39 1   
    19    11    12 1   
    20    11    13 1   
    21    11    40 1   
    22    12    41 1   
    23    13    14 1   
    24    13    15 1   
    25    13    42 1   
    26    14    43 1   
    27    15    16 1   
    28    15    17 1   
    29    15    44 1   
    30    16    45 1   
    31    17    18 1   
    32    17    19 1   
    33    17    46 1   
    34    18    47 1   
    35    19    20 1   
    36    19    48 1   
    37    19    49 1   
    38    20    50 1   
    39    21    22 1   
    40    22    23 1   
    41    22    24 1   
    42    22    61 1   
    43    25    26 1   
    44    25    51 1   
    45    25    52 1   
    46    25    61 1   
    47    26    27 1   
    48    26    32 1   
    49    26    53 1   
    50    27    28 1   
    51    27    29 1   
    52    27    54 1   
    53    28    55 1   
    54    29    30 1   
    55    29    31 1   
    56    29    56 1   
    57    30    57 1   
    58    31    32 1   
    59    31    58 1   
    60    33    59 1   
    61    33    60 1   
    62    34    35 2   
@<TRIPOS>SUBSTRUCTURE
     1 YCX         1 TEMP              0 ****  ****    0 ROOT
