@<TRIPOS>MOLECULE
YCY
   31    32     1     0     0
SMALL
No Charge or Current Charge


@<TRIPOS>ATOM
      1 N1           7.4570    -1.0630    57.3690 nu         1 YCY      -0.871100
      2 C4           4.4930     0.5180    57.0450 ca         1 YCY       0.033000
      3 C5           5.0570     0.0020    58.2270 ca         1 YCY      -0.319500
      4 C6           7.1210    -2.4010    57.1530 ca         1 YCY       0.222000
      5 C7           6.4430    -3.1770    58.1160 ca         1 YCY      -0.102000
      6 C8           6.1200    -4.5200    57.8520 ca         1 YCY      -0.101500
      7 C10          7.1570    -4.3380    55.6620 ca         1 YCY      -0.101500
      8 C13          2.8380    -0.6050    59.0160 ca         1 YCY      -0.202000
      9 C1           0.2150     0.3230    56.5370 c3         1 YCY       0.145900
     10 C11          7.4780    -2.9940    55.9280 ca         1 YCY      -0.102000
     11 C12          4.2270    -0.5600    59.2160 ca         1 YCY       0.033000
     12 C2           2.2690    -0.0950    57.8400 ca         1 YCY       0.199100
     13 C3           3.1020     0.4700    56.8510 ca         1 YCY      -0.202000
     14 C9           6.4760    -5.1010    56.6240 ca         1 YCY      -0.104000
     15 O1           0.8980    -0.1700    57.7030 os         1 YCY      -0.335100
     16 O2           7.2080    -0.4530    59.7790 o          1 YCY      -0.543000
     17 O3           7.3570     1.3190    57.9280 o          1 YCY      -0.543000
     18 S1           6.8350     0.0580    58.4570 sy         1 YCY       1.135600
     19 H6           7.8450    -0.5360    56.5990 hn         1 YCY       0.484000
     20 H5           5.1280     0.9530    56.2750 ha         1 YCY       0.138500
     21 H7           6.1670    -2.7530    59.0760 ha         1 YCY       0.124000
     22 H8           5.5970    -5.1110    58.6010 ha         1 YCY       0.118500
     23 H10          7.4360    -4.7850    54.7100 ha         1 YCY       0.118500
     24 H13          2.1970    -1.0400    59.7780 ha         1 YCY       0.128000
     25 H2          -0.8660     0.1650    56.6340 h1         1 YCY       0.046700
     26 H3           0.3900     1.3990    56.4070 h1         1 YCY       0.046700
     27 H1           0.5550    -0.2010    55.6350 h1         1 YCY       0.046700
     28 H11          8.0050    -2.4130    55.1760 ha         1 YCY       0.124000
     29 H12          4.6480    -0.9620    60.1370 ha         1 YCY       0.138500
     30 H4           2.6930     0.8740    55.9300 ha         1 YCY       0.128000
     31 H9           6.2270    -6.1400    56.4200 ha         1 YCY       0.116000
@<TRIPOS>BOND
     1     1     4 1   
     2     1    18 1   
     3     1    19 1   
     4     2     3 ar  
     5     2    13 ar  
     6     2    20 1   
     7     3    11 ar  
     8     3    18 1   
     9     4     5 ar  
    10     4    10 ar  
    11     5     6 ar  
    12     5    21 1   
    13     6    14 ar  
    14     6    22 1   
    15     7    10 ar  
    16     7    14 ar  
    17     7    23 1   
    18     8    11 ar  
    19     8    12 ar  
    20     8    24 1   
    21     9    15 1   
    22     9    25 1   
    23     9    26 1   
    24     9    27 1   
    25    10    28 1   
    26    11    29 1   
    27    12    13 ar  
    28    12    15 1   
    29    13    30 1   
    30    14    31 1   
    31    16    18 2   
    32    17    18 2   
@<TRIPOS>SUBSTRUCTURE
     1 YCY         1 TEMP              0 ****  ****    0 ROOT
