@<TRIPOS>MOLECULE
YCY
   31    32     1     0     0
SMALL
abcg2


@<TRIPOS>ATOM
      1 N1           7.1040    -0.9540    56.4240 nu         1 YCY      -0.871100
      2 C4           4.2870     0.7080    57.0330 ca         1 YCY       0.033000
      3 C5           5.0650    -0.0460    57.9000 ca         1 YCY      -0.319500
      4 C6           6.9700    -2.3560    56.6320 ca         1 YCY       0.222000
      5 C7           5.7330    -2.9510    56.4110 ca         1 YCY      -0.102000
      6 C8           5.5770    -4.3150    56.6170 ca         1 YCY      -0.101500
      7 C10          7.8930    -4.4920    57.2360 ca         1 YCY      -0.101500
      8 C13          3.0920    -0.9300    58.9300 ca         1 YCY      -0.202000
      9 C1           0.1140     0.4200    57.3460 c3         1 YCY       0.145900
     10 C11          8.0490    -3.1270    57.0500 ca         1 YCY      -0.102000
     11 C12          4.4670    -0.8630    58.8560 ca         1 YCY       0.033000
     12 C2           2.2980    -0.1800    58.0550 ca         1 YCY       0.199100
     13 C3           2.9070     0.6470    57.1070 ca         1 YCY      -0.202000
     14 C9           6.6550    -5.0870    57.0280 ca         1 YCY      -0.104000
     15 O1           0.9780    -0.3150    58.1960 os         1 YCY      -0.335100
     16 O2           7.3920    -0.5590    58.9610 o          1 YCY      -0.543000
     17 O3           7.2320     1.3510    57.3430 o          1 YCY      -0.543000
     18 S1           6.8160     0.0210    57.7580 sy         1 YCY       1.135600
     19 H6           7.9890    -0.6830    56.0020 hn         1 YCY       0.484000
     20 H5           4.7450     1.3520    56.2940 ha         1 YCY       0.138500
     21 H7           4.9010    -2.3490    56.0700 ha         1 YCY       0.124000
     22 H8           4.6120    -4.7740    56.4460 ha         1 YCY       0.118500
     23 H10          8.7370    -5.0890    57.5550 ha         1 YCY       0.118500
     24 H13          2.6180    -1.5650    59.6670 ha         1 YCY       0.128000
     25 H2          -0.8990     0.1460    57.6280 h1         1 YCY       0.046700
     26 H3           0.2390     1.4980    57.4770 h1         1 YCY       0.046700
     27 H1           0.2690     0.1690    56.2940 h1         1 YCY       0.046700
     28 H11          9.0100    -2.6580    57.2250 ha         1 YCY       0.124000
     29 H12          5.0650    -1.4500    59.5390 ha         1 YCY       0.138500
     30 H4           2.3240     1.2470    56.4220 ha         1 YCY       0.128000
     31 H9           6.5320    -6.1510    57.1810 ha         1 YCY       0.116000
@<TRIPOS>BOND
     1     1     4 1   
     2     1    18 1   
     3     1    19 1   
     4     2     3 ar  
     5     2    13 ar  
     6     2    20 1   
     7     3    11 ar  
     8     3    18 1   
     9     4     5 ar  
    10     4    10 ar  
    11     5     6 ar  
    12     5    21 1   
    13     6    14 ar  
    14     6    22 1   
    15     7    10 ar  
    16     7    14 ar  
    17     7    23 1   
    18     8    11 ar  
    19     8    12 ar  
    20     8    24 1   
    21     9    15 1   
    22     9    25 1   
    23     9    26 1   
    24     9    27 1   
    25    10    28 1   
    26    11    29 1   
    27    12    13 ar  
    28    12    15 1   
    29    13    30 1   
    30    14    31 1   
    31    16    18 2   
    32    17    18 2   
@<TRIPOS>SUBSTRUCTURE
     1 YCY         1 TEMP              0 ****  ****    0 ROOT
