@<TRIPOS>MOLECULE
YD1
   38    40     1     0     0
SMALL
abcg2


@<TRIPOS>ATOM
      1 C1          60.2590    -1.8080   105.1570 cc         1 YD1       0.049400
      2 C2          59.8700    -0.6730   106.0670 c          1 YD1       0.606300
      3 C5          57.7230    -1.8160   106.6240 c6         1 YD1       0.090000
      4 C6          56.3700    -1.4270   106.0570 c6         1 YD1       0.181800
      5 C8          56.7750     0.8550   106.7460 c6         1 YD1       0.181800
      6 C9          58.1220     0.4540   107.3190 c6         1 YD1       0.090000
      7 C12         52.5430     1.2890   107.2860 ca         1 YD1      -0.066000
      8 C14         52.3150    -0.4340   105.6530 ca         1 YD1       0.152000
      9 C10         54.4920     0.0180   106.6120 ca         1 YD1       0.305000
     10 C11         53.8930     1.0240   107.3850 ca         1 YD1      -0.144000
     11 C13         51.7350     0.5610   106.4220 ca         1 YD1       0.086000
     12 C16         53.6740    -0.6990   105.7340 ca         1 YD1      -0.164000
     13 C19         61.9840    -3.4250   104.7060 c          1 YD1       0.620000
     14 C22         60.1260    -3.0750   103.1070 c          1 YD1       0.590200
     15 C24         59.6040    -2.0750   104.0130 cd         1 YD1      -0.361200
     16 N18         61.4110    -2.4540   105.4890 ns         1 YD1      -0.505600
     17 N21         61.2930    -3.6820   103.5490 ns         1 YD1      -0.472500
     18 N4          58.6380    -0.6900   106.5890 n          1 YD1      -0.399800
     19 N7          55.8460    -0.2670   106.7490 nh         1 YD1      -0.792400
     20 O20         63.0050    -4.0000   105.0110 o          1 YD1      -0.540000
     21 O23         59.6270    -3.3920   102.0460 o          1 YD1      -0.516000
     22 O3          60.6910     0.2140   106.2370 o          1 YD1      -0.573100
     23 CL17        50.0470     0.8980   106.3310 cl         1 YD1      -0.170000
     24 H1          57.6040    -2.1260   107.6670 h1         1 YD1       0.069450
     25 H2          58.1180    -2.6650   106.0740 h1         1 YD1       0.069450
     26 H3          56.4590    -1.2560   104.9740 h1         1 YD1       0.053950
     27 H4          55.7020    -2.2760   106.2050 h1         1 YD1       0.053950
     28 H5          56.9150     1.2380   105.7250 h1         1 YD1       0.053950
     29 H6          56.3870     1.6730   107.3490 h1         1 YD1       0.053950
     30 H7          58.0190     0.1900   108.3760 h1         1 YD1       0.069450
     31 H8          58.8130     1.2890   107.2430 h1         1 YD1       0.069450
     32 H9          52.1050     2.0640   107.9020 ha         1 YD1       0.132000
     33 H10         54.4750     1.5940   108.0960 ha         1 YD1       0.123000
     34 H11         54.0800    -1.4640   105.0900 ha         1 YD1       0.131000
     35 H12         58.6990    -1.5500   103.7480 ha         1 YD1       0.225000
     36 H13         61.8980    -2.2150   106.3430 hn         1 YD1       0.474000
     37 H14         61.6930    -4.3940   102.9490 hn         1 YD1       0.346500
     38 CL15        51.3590    -1.3560   104.5530 cl         1 YD1      -0.173000
@<TRIPOS>BOND
     1     1     2 1   
     2     1    15 2   
     3     1    16 1   
     4     2    18 1   
     5     2    22 2   
     6     3     4 1   
     7     3    18 1   
     8     3    24 1   
     9     3    25 1   
    10     4    19 1   
    11     4    26 1   
    12     4    27 1   
    13     5     6 1   
    14     5    19 1   
    15     5    28 1   
    16     5    29 1   
    17     6    18 1   
    18     6    30 1   
    19     6    31 1   
    20     7    10 ar  
    21     7    11 ar  
    22     7    32 1   
    23     8    11 ar  
    24     8    12 ar  
    25     8    38 1   
    26     9    10 ar  
    27     9    12 ar  
    28     9    19 1   
    29    10    33 1   
    30    11    23 1   
    31    12    34 1   
    32    13    16 1   
    33    13    17 1   
    34    13    20 2   
    35    14    15 1   
    36    14    17 1   
    37    14    21 2   
    38    15    35 1   
    39    16    36 1   
    40    17    37 1   
@<TRIPOS>SUBSTRUCTURE
     1 YD1         1 TEMP              0 ****  ****    0 ROOT
