@<TRIPOS>MOLECULE
YD1
   38    40     1     0     0
SMALL
No Charge or Current Charge


@<TRIPOS>ATOM
      1 C1          60.5050    -1.9820   105.3150 cc         1 YD1       0.049400
      2 C2          59.9430    -0.9410   106.2580 c          1 YD1       0.606300
      3 C5          57.5600    -1.7700   106.2370 c6         1 YD1       0.090000
      4 C6          56.1410    -1.3710   105.7480 c6         1 YD1       0.181800
      5 C8          56.6140     0.9940   106.3200 c6         1 YD1       0.181800
      6 C9          58.0400     0.5970   106.7930 c6         1 YD1       0.090000
      7 C12         52.4560     1.1710   107.8390 ca         1 YD1      -0.066000
      8 C14         51.9580    -0.1170   105.8370 ca         1 YD1       0.152000
      9 C10         54.2710     0.1200   106.5820 ca         1 YD1       0.305000
     10 C11         53.8250     0.8990   107.6660 ca         1 YD1      -0.144000
     11 C13         51.5180     0.6640   106.9250 ca         1 YD1       0.086000
     12 C16         53.3270    -0.3860   105.6700 ca         1 YD1      -0.164000
     13 C19         62.4900    -3.3280   104.8100 c          1 YD1       0.620000
     14 C22         60.5520    -3.4720   103.3250 c          1 YD1       0.590200
     15 C24         59.8860    -2.4880   104.1870 cd         1 YD1      -0.361200
     16 N18         61.8040    -2.4160   105.5560 ns         1 YD1      -0.505600
     17 N21         61.8060    -3.8050   103.7390 ns         1 YD1      -0.472500
     18 N4          58.5600    -0.6550   106.1670 n          1 YD1      -0.399800
     19 N7          55.6530    -0.1400   106.4310 nh         1 YD1      -0.792400
     20 O20         63.6200    -3.6800   105.0830 o          1 YD1      -0.540000
     21 O23         60.0470    -3.9500   102.3250 o          1 YD1      -0.516000
     22 O3          60.6530    -0.3450   107.0610 o          1 YD1      -0.573100
     23 Cl17        49.8060     1.0190   107.1640 cl         1 YD1      -0.170000
     24 H1          57.4750    -2.0780   107.2890 h1         1 YD1       0.069450
     25 H2          57.8910    -2.6600   105.6920 h1         1 YD1       0.069450
     26 H3          56.1710    -1.2120   104.6600 h1         1 YD1       0.053950
     27 H4          55.4610    -2.2130   105.9410 h1         1 YD1       0.053950
     28 H5          56.6700     1.3270   105.2740 h1         1 YD1       0.053950
     29 H6          56.2770     1.8560   106.9140 h1         1 YD1       0.053950
     30 H7          58.0240     0.4650   107.8840 h1         1 YD1       0.069450
     31 H8          58.7250     1.4290   106.5760 h1         1 YD1       0.069450
     32 H9          52.1220     1.7720   108.6820 ha         1 YD1       0.132000
     33 H10         54.5410     1.2850   108.3840 ha         1 YD1       0.123000
     34 H11         53.6460    -0.9800   104.8200 ha         1 YD1       0.131000
     35 H12         58.9100    -2.1720   103.8420 ha         1 YD1       0.225000
     36 H13         62.3170    -2.0460   106.3510 hn         1 YD1       0.474000
     37 H14         62.2930    -4.4790   103.1710 hn         1 YD1       0.346500
     38 Cl15        50.8120    -0.7700   104.6650 cl         1 YD1      -0.173000
@<TRIPOS>BOND
     1     1     2 1   
     2     1    15 2   
     3     1    16 1   
     4     2    18 1   
     5     2    22 2   
     6     3     4 1   
     7     3    18 1   
     8     3    24 1   
     9     3    25 1   
    10     4    19 1   
    11     4    26 1   
    12     4    27 1   
    13     5     6 1   
    14     5    19 1   
    15     5    28 1   
    16     5    29 1   
    17     6    18 1   
    18     6    30 1   
    19     6    31 1   
    20     7    10 ar  
    21     7    11 ar  
    22     7    32 1   
    23     8    11 ar  
    24     8    12 ar  
    25     8    38 1   
    26     9    10 ar  
    27     9    12 ar  
    28     9    19 1   
    29    10    33 1   
    30    11    23 1   
    31    12    34 1   
    32    13    16 1   
    33    13    17 1   
    34    13    20 2   
    35    14    15 1   
    36    14    17 1   
    37    14    21 2   
    38    15    35 1   
    39    16    36 1   
    40    17    37 1   
@<TRIPOS>SUBSTRUCTURE
     1 YD1         1 TEMP              0 ****  ****    0 ROOT
