@<TRIPOS>MOLECULE
YD3
   70    74     1     0     0
SMALL
abcg2


@<TRIPOS>ATOM
      1 O3           0.3800     2.4080     2.4260 o          1 YD3      -0.557000
      2 C22         -0.5390     1.8390     1.8460 c          1 YD3       0.554200
      3 N3          -0.3930     0.5580     1.3920 ns         1 YD3      -0.371100
      4 C23         -1.8330     2.4510     1.5670 cc         1 YD3      -0.172400
      5 C24         -2.0460     3.8460     2.0520 c3         1 YD3      -0.039900
      6 C25         -2.7560     1.7640     0.8590 cd         1 YD3      -0.104200
      7 C26         -2.5430     0.4310     0.3730 ca         1 YD3      -0.085800
      8 C6          -3.4710    -0.2650    -0.4360 cp         1 YD3      -0.015000
      9 C4          -4.8140     0.2720    -0.7240 cp         1 YD3      -0.086000
     10 C3          -5.6950     0.6010     0.3080 ca         1 YD3       0.340900
     11 N           -6.9230     1.0500     0.1050 nb         1 YD3      -0.661000
     12 C2          -7.3390     1.1940    -1.1480 ca         1 YD3       0.335900
     13 C5          -5.2770     0.4240    -2.0260 ca         1 YD3      -0.068000
     14 C1          -6.5640     0.8940    -2.2630 ca         1 YD3      -0.125300
     15 C           -7.0860     1.0850    -3.6530 c3         1 YD3      -0.043800
     16 C21         -1.3110    -0.1600     0.6670 ca         1 YD3       0.059600
     17 C9          -0.9720    -1.4560     0.2110 ca         1 YD3       0.254000
     18 C8          -1.8720    -2.0790    -0.6380 ca         1 YD3      -0.137000
     19 C7          -3.0950    -1.4870    -0.9570 ca         1 YD3      -0.101000
     20 N1           0.2580    -1.9720     0.5860 nu         1 YD3      -0.939200
     21 C10          0.7920    -3.1830    -0.0030 c6         1 YD3       0.210500
     22 C14          2.3170    -3.1740     0.1080 c6         1 YD3       0.175300
     23 C13          2.8970    -4.4740    -0.4480 c6         1 YD3       0.128800
     24 N2           2.3430    -5.6060     0.2640 n7         1 YD3      -0.865400
     25 C12          0.9100    -5.7030     0.0660 c6         1 YD3       0.162800
     26 C11          0.2390    -4.4630     0.6330 c6         1 YD3      -0.110400
     27 O            2.8080    -2.0570    -0.5890 os         1 YD3      -0.453000
     28 C15          4.0600    -1.5750    -0.1710 c3         1 YD3       0.170600
     29 C16          4.1680    -0.0920    -0.5000 c6         1 YD3      -0.077700
     30 C20          5.5520     0.4100    -0.0850 c6         1 YD3      -0.055900
     31 C19          5.7870     1.8760    -0.4290 c6         1 YD3      -0.298900
     32 S            4.5950     2.9190     0.3980 s6         1 YD3       1.080000
     33 O1           4.6870     4.2850    -0.1170 o          1 YD3      -0.517000
     34 O2           4.7340     2.7170     1.8430 o          1 YD3      -0.517000
     35 C18          3.0580     2.1800    -0.1330 c6         1 YD3      -0.298900
     36 C17          3.0350     0.6880     0.1680 c6         1 YD3      -0.055900
     37 H3           0.5200     0.1470     1.5300 hn         1 YD3       0.331500
     38 H241        -1.9230     3.9120     3.1350 hc         1 YD3       0.051367
     39 H242        -1.3250     4.5350     1.6100 hc         1 YD3       0.051367
     40 H243        -3.0460     4.1980     1.8040 hc         1 YD3       0.051367
     41 H25         -3.6960     2.2490     0.6260 ha         1 YD3       0.194000
     42 H7          -3.7820    -2.0310    -1.5920 ha         1 YD3       0.119000
     43 HA          -5.3880     0.4770     1.3420 h4         1 YD3       0.025100
     44 H5          -4.6250     0.1850    -2.8590 ha         1 YD3       0.121000
     45 H2          -8.3510     1.5670    -1.2800 h4         1 YD3       0.019100
     46 HC1         -6.5210     1.8550    -4.1810 hc         1 YD3       0.046033
     47 HC2         -7.0040     0.1680    -4.2380 hc         1 YD3       0.046033
     48 HC3         -8.1330     1.3850    -3.6470 hc         1 YD3       0.046033
     49 H8          -1.6530    -3.0550    -1.0460 ha         1 YD3       0.118000
     50 H1           0.4280    -1.9300     1.5830 hn         1 YD3       0.456000
     51 H10          0.5420    -3.1730    -1.0690 h1         1 YD3       0.075700
     52 H14          2.5870    -3.1060     1.1750 h1         1 YD3       0.047700
     53 H111         0.4070    -4.4240     1.7140 hc         1 YD3       0.055200
     54 H112        -0.8400    -4.5230     0.4820 hc         1 YD3       0.055200
     55 H131         2.6970    -4.5050    -1.5330 h1         1 YD3       0.040700
     56 H132         3.9830    -4.4750    -0.3240 h1         1 YD3       0.040700
     57 HB           2.7970    -6.4560    -0.0420 hn         1 YD3       0.421000
     58 H121         0.6370    -5.8090    -0.9970 h1         1 YD3       0.035700
     59 H122         0.5370    -6.5920     0.5790 h1         1 YD3       0.035700
     60 H151         4.1860    -1.7100     0.9130 h1         1 YD3       0.029200
     61 H152         4.8810    -2.1190    -0.6570 h1         1 YD3       0.029200
     62 H16          4.0770     0.0310    -1.5870 hc         1 YD3       0.063700
     63 H201         5.7040     0.2590     0.9870 hc         1 YD3       0.065200
     64 H202         6.3240    -0.1710    -0.5930 hc         1 YD3       0.065200
     65 H171         2.0810     0.2990    -0.1860 hc         1 YD3       0.065200
     66 H172         3.0610     0.5330     1.2510 hc         1 YD3       0.065200
     67 H191         6.7710     2.2220    -0.1070 h1         1 YD3       0.104950
     68 H192         5.6860     2.0640    -1.5000 h1         1 YD3       0.104950
     69 H181         2.2650     2.7130     0.3950 h1         1 YD3       0.104950
     70 H182         2.9630     2.3820    -1.2020 h1         1 YD3       0.104950
@<TRIPOS>BOND
     1     1     2 2   
     2     2     3 1   
     3     2     4 1   
     4     3    16 1   
     5     3    37 1   
     6     4     5 1   
     7     4     6 2   
     8     5    38 1   
     9     5    39 1   
    10     5    40 1   
    11     6     7 1   
    12     6    41 1   
    13     7     8 ar  
    14     7    16 ar  
    15     8     9 1   
    16     8    19 ar  
    17     9    10 ar  
    18     9    13 ar  
    19    10    11 ar  
    20    10    43 1   
    21    11    12 ar  
    22    12    14 ar  
    23    12    45 1   
    24    13    14 ar  
    25    13    44 1   
    26    14    15 1   
    27    15    46 1   
    28    15    47 1   
    29    15    48 1   
    30    16    17 ar  
    31    17    18 ar  
    32    17    20 1   
    33    18    19 ar  
    34    18    49 1   
    35    19    42 1   
    36    20    21 1   
    37    20    50 1   
    38    21    22 1   
    39    21    26 1   
    40    21    51 1   
    41    22    23 1   
    42    22    27 1   
    43    22    52 1   
    44    23    24 1   
    45    23    55 1   
    46    23    56 1   
    47    24    25 1   
    48    24    57 1   
    49    25    26 1   
    50    25    58 1   
    51    25    59 1   
    52    26    53 1   
    53    26    54 1   
    54    27    28 1   
    55    28    29 1   
    56    28    60 1   
    57    28    61 1   
    58    29    30 1   
    59    29    36 1   
    60    29    62 1   
    61    30    31 1   
    62    30    63 1   
    63    30    64 1   
    64    31    32 1   
    65    31    67 1   
    66    31    68 1   
    67    32    33 2   
    68    32    34 2   
    69    32    35 1   
    70    35    36 1   
    71    35    69 1   
    72    35    70 1   
    73    36    65 1   
    74    36    66 1   
@<TRIPOS>SUBSTRUCTURE
     1 YD3         1 TEMP              0 ****  ****    0 ROOT
