@<TRIPOS>MOLECULE
YD3
   70    74     1     0     0
SMALL
No Charge or Current Charge


@<TRIPOS>ATOM
      1 O3           0.5820     0.3150     4.3610 o          1 YD3      -0.557000
      2 C22         -0.1600     0.2710     3.3910 c          1 YD3       0.554200
      3 N3          -0.3270    -0.8930     2.6880 ns         1 YD3      -0.371100
      4 C23         -0.9360     1.4270     2.8600 cc         1 YD3      -0.172400
      5 C24         -0.7570     2.7330     3.6000 c3         1 YD3      -0.039900
      6 C25         -1.7410     1.2730     1.7450 cd         1 YD3      -0.104200
      7 C26         -1.8760    -0.0170     1.0430 ca         1 YD3      -0.085800
      8 C6          -2.6650    -0.1840    -0.1300 cp         1 YD3      -0.015000
      9 C4          -3.4660     0.9260    -0.7200 cp         1 YD3      -0.086000
     10 C3          -4.4820     1.5860     0.0170 ca         1 YD3       0.340900
     11 N           -5.2380     2.5940    -0.4780 nb         1 YD3      -0.661000
     12 C2          -5.0080     2.9840    -1.7530 ca         1 YD3       0.335900
     13 C5          -3.2570     1.3410    -2.0540 ca         1 YD3      -0.068000
     14 C1          -4.0320     2.3900    -2.5790 ca         1 YD3      -0.125300
     15 C           -3.8170     2.8650    -4.0080 c3         1 YD3      -0.043800
     16 C21         -1.1350    -1.1080     1.5470 ca         1 YD3       0.059600
     17 C9          -1.1610    -2.3680     0.8980 ca         1 YD3       0.254000
     18 C8          -1.9220    -2.5190    -0.2700 ca         1 YD3      -0.137000
     19 C7          -2.6620    -1.4420    -0.7770 ca         1 YD3      -0.101000
     20 N1          -0.4490    -3.4730     1.3950 nu         1 YD3      -0.939200
     21 C10          0.6180    -4.1650     0.6240 c6         1 YD3       0.210500
     22 C14          1.9260    -3.3050     0.4910 c6         1 YD3       0.175300
     23 C13          3.0680    -4.1630    -0.1450 c6         1 YD3       0.128800
     24 N2           3.2760    -5.4630     0.5510 n7         1 YD3      -0.865400
     25 C12          2.0450    -6.2800     0.6150 c6         1 YD3       0.162800
     26 C11          0.9170    -5.5090     1.3320 c6         1 YD3      -0.110400
     27 O            1.6890    -2.1040    -0.2900 os         1 YD3      -0.453000
     28 C15          2.6950    -1.0760    -0.2350 c3         1 YD3       0.170600
     29 C16          2.2830     0.1170    -1.1500 c6         1 YD3      -0.077700
     30 C20          3.3780     1.2230    -1.1060 c6         1 YD3      -0.055900
     31 C19          3.0780     2.4040    -2.0680 c6         1 YD3      -0.298900
     32 S            1.5240     3.2550    -1.6860 s6         1 YD3       1.080000
     33 O1           1.1770     4.1380    -2.8070 o          1 YD3      -0.517000
     34 O2           1.5970     3.7930    -0.3220 o          1 YD3      -0.517000
     35 C18          0.4080     1.8280    -1.6960 c6         1 YD3      -0.298900
     36 C17          0.8800     0.6760    -0.7720 c6         1 YD3      -0.055900
     37 H3           0.2370    -1.6710     2.9970 hn         1 YD3       0.331500
     38 H241        -1.0460     2.6310     4.6530 hc         1 YD3       0.051367
     39 H242         0.2880     3.0630     3.5650 hc         1 YD3       0.051367
     40 H243        -1.3720     3.5290     3.1640 hc         1 YD3       0.051367
     41 H25         -2.2600     2.1490     1.3700 ha         1 YD3       0.194000
     42 H7          -3.2520    -1.5810    -1.6800 ha         1 YD3       0.119000
     43 HA          -4.6930     1.2900     1.0440 h4         1 YD3       0.025100
     44 H5          -2.4960     0.8590    -2.6650 ha         1 YD3       0.121000
     45 H2          -5.6300     3.7980    -2.1250 h4         1 YD3       0.019100
     46 HC1         -2.7500     2.9810    -4.2290 hc         1 YD3       0.046033
     47 HC2         -4.2330     2.1480    -4.7250 hc         1 YD3       0.046033
     48 HC3         -4.2990     3.8340    -4.1880 hc         1 YD3       0.046033
     49 H8          -1.9510    -3.4780    -0.7780 ha         1 YD3       0.118000
     50 H1          -0.3910    -3.5350     2.4100 hn         1 YD3       0.456000
     51 H10          0.2610    -4.3950    -0.3920 h1         1 YD3       0.075700
     52 H14          2.2390    -3.0060     1.5020 h1         1 YD3       0.047700
     53 H111         1.2060    -5.3320     2.3770 hc         1 YD3       0.055200
     54 H112         0.0110    -6.1300     1.3550 hc         1 YD3       0.055200
     55 H131         2.8230    -4.3550    -1.2010 h1         1 YD3       0.040700
     56 H132         4.0110    -3.5980    -0.1230 h1         1 YD3       0.040700
     57 HB           4.0050    -5.9960     0.0560 hn         1 YD3       0.421000
     58 H121         1.7240    -6.5450    -0.4040 h1         1 YD3       0.035700
     59 H122         2.2530    -7.2160     1.1540 h1         1 YD3       0.035700
     60 H151         2.8140    -0.7140     0.7950 h1         1 YD3       0.029200
     61 H152         3.6650    -1.4590    -0.5790 h1         1 YD3       0.029200
     62 H16          2.2360    -0.2870    -2.1710 hc         1 YD3       0.063700
     63 H201         3.4870     1.5990    -0.0780 hc         1 YD3       0.065200
     64 H202         4.3500     0.7860    -1.3730 hc         1 YD3       0.065200
     65 H171         0.1430    -0.1340    -0.8380 hc         1 YD3       0.065200
     66 H172         0.8800     1.0090     0.2760 hc         1 YD3       0.065200
     67 H191         3.8610     3.1710    -2.0140 h1         1 YD3       0.104950
     68 H192         2.9860     2.0570    -3.1040 h1         1 YD3       0.104950
     69 H181        -0.5710     2.2110    -1.3840 h1         1 YD3       0.104950
     70 H182         0.3500     1.4980    -2.7410 h1         1 YD3       0.104950
@<TRIPOS>BOND
     1     1     2 2   
     2     2     3 1   
     3     2     4 1   
     4     3    16 1   
     5     3    37 1   
     6     4     5 1   
     7     4     6 2   
     8     5    38 1   
     9     5    39 1   
    10     5    40 1   
    11     6     7 1   
    12     6    41 1   
    13     7     8 ar  
    14     7    16 ar  
    15     8     9 1   
    16     8    19 ar  
    17     9    10 ar  
    18     9    13 ar  
    19    10    11 ar  
    20    10    43 1   
    21    11    12 ar  
    22    12    14 ar  
    23    12    45 1   
    24    13    14 ar  
    25    13    44 1   
    26    14    15 1   
    27    15    46 1   
    28    15    47 1   
    29    15    48 1   
    30    16    17 ar  
    31    17    18 ar  
    32    17    20 1   
    33    18    19 ar  
    34    18    49 1   
    35    19    42 1   
    36    20    21 1   
    37    20    50 1   
    38    21    22 1   
    39    21    26 1   
    40    21    51 1   
    41    22    23 1   
    42    22    27 1   
    43    22    52 1   
    44    23    24 1   
    45    23    55 1   
    46    23    56 1   
    47    24    25 1   
    48    24    57 1   
    49    25    26 1   
    50    25    58 1   
    51    25    59 1   
    52    26    53 1   
    53    26    54 1   
    54    27    28 1   
    55    28    29 1   
    56    28    60 1   
    57    28    61 1   
    58    29    30 1   
    59    29    36 1   
    60    29    62 1   
    61    30    31 1   
    62    30    63 1   
    63    30    64 1   
    64    31    32 1   
    65    31    67 1   
    66    31    68 1   
    67    32    33 2   
    68    32    34 2   
    69    32    35 1   
    70    35    36 1   
    71    35    69 1   
    72    35    70 1   
    73    36    65 1   
    74    36    66 1   
@<TRIPOS>SUBSTRUCTURE
     1 YD3         1 TEMP              0 ****  ****    0 ROOT
