@<TRIPOS>MOLECULE
YD4
   69    73     1     0     0
SMALL
bcc


@<TRIPOS>ATOM
      1 O3          11.7090   -37.1650   -14.9720 o          1 YD4      -0.630500
      2 C22         12.1530   -36.4060   -15.8230 c          1 YD4       0.697700
      3 N3          13.0970   -36.8300   -16.7200 ns         1 YD4      -0.442100
      4 C23         11.7480   -35.0100   -15.9630 cc         1 YD4      -0.135400
      5 C24         10.7780   -34.4810   -14.9620 c3         1 YD4      -0.042900
      6 C25         12.2700   -34.2580   -16.9530 cd         1 YD4      -0.071200
      7 C26         13.2460   -34.7590   -17.8780 ca         1 YD4      -0.038800
      8 C6          13.8690   -33.9580   -18.8660 cp         1 YD4      -0.172300
      9 C4          13.4820   -32.5630   -19.1340 cp         1 YD4      -0.138300
     10 C3          12.1700   -32.2180   -19.4630 ca         1 YD4       0.407200
     11 N           11.7900   -30.9840   -19.7490 nb         1 YD4      -0.660000
     12 C2          12.7060   -30.0230   -19.7280 ca         1 YD4       0.401200
     13 C5          14.4220   -31.5390   -19.1200 ca         1 YD4      -0.094000
     14 C1          14.0460   -30.2350   -19.4220 ca         1 YD4      -0.188600
     15 C           15.0340   -29.1100   -19.4020 c3         1 YD4      -0.043800
     16 C21         13.6710   -36.0720   -17.7130 ca         1 YD4      -0.092700
     17 C9          14.7470   -36.5660   -18.5070 ca         1 YD4       0.680200
     18 N8          15.3180   -35.7890   -19.4060 nb         1 YD4      -0.719000
     19 C7          14.8930   -34.5390   -19.5780 ca         1 YD4       0.435200
     20 N1          15.2020   -37.8400   -18.3690 nu         1 YD4      -0.878900
     21 C10         16.5210   -38.2660   -18.7820 c6         1 YD4       0.222500
     22 C14         17.5370   -38.1690   -17.6390 c6         1 YD4       0.121100
     23 C13         18.9460   -38.4500   -18.1790 c6         1 YD4       0.151800
     24 N2          18.8850   -39.3160   -19.3470 n7         1 YD4      -0.809200
     25 C12         17.8790   -40.3520   -19.2060 c6         1 YD4       0.159800
     26 C11         16.4880   -39.7120   -19.2910 c6         1 YD4      -0.077400
     27 O           17.5240   -36.8980   -17.0300 os         1 YD4      -0.406600
     28 C15         17.0210   -36.8660   -15.7160 c3         1 YD4       0.150400
     29 C16         17.0970   -35.4470   -15.1740 c6         1 YD4      -0.070700
     30 C20         16.6450   -35.4540   -13.7120 c6         1 YD4      -0.058400
     31 C19         16.7580   -34.0900   -13.0430 c6         1 YD4      -0.184100
     32 S           15.7430   -32.8820   -13.8840 s6         1 YD4       0.995000
     33 O1          16.0470   -31.5440   -13.3740 o          1 YD4      -0.589800
     34 O2          14.3510   -33.3370   -13.8490 o          1 YD4      -0.589800
     35 C18         16.3450   -33.0400   -15.5590 c6         1 YD4      -0.184100
     36 C17         16.2600   -34.4880   -16.0200 c6         1 YD4      -0.058400
     37 H1          13.3580   -37.7980   -16.6050 hn         1 YD4       0.315500
     38 H2           9.8680   -35.0810   -14.9330 hc         1 YD4       0.055367
     39 H3          11.2080   -34.5020   -13.9590 hc         1 YD4       0.055367
     40 H4          10.5040   -33.4530   -15.1910 hc         1 YD4       0.055367
     41 H5          11.9680   -33.2220   -17.0330 ha         1 YD4       0.149000
     42 H6          11.4030   -32.9860   -19.5120 h4         1 YD4       0.025100
     43 H7          12.3610   -29.0230   -19.9720 h4         1 YD4       0.019100
     44 H8          15.4540   -31.7590   -18.8680 ha         1 YD4       0.135000
     45 H9          15.3090   -28.8480   -18.3780 hc         1 YD4       0.046367
     46 H10         15.9520   -29.3820   -19.9230 hc         1 YD4       0.046367
     47 H11         14.6310   -28.2150   -19.8740 hc         1 YD4       0.046367
     48 H12         15.4050   -33.9700   -20.3470 h4         1 YD4       0.025100
     49 H13         14.7660   -38.4430   -17.6920 hn         1 YD4       0.414800
     50 H14         16.8350   -37.6010   -19.5870 h1         1 YD4       0.118700
     51 H15         17.2770   -38.9370   -16.8950 h1         1 YD4       0.027700
     52 H16         19.5580   -38.8660   -17.3650 h1         1 YD4       0.046700
     53 H17         19.4000   -37.4980   -18.4680 h1         1 YD4       0.046700
     54 H18         19.7930   -39.7270   -19.5130 hn         1 YD4       0.365800
     55 H20         17.9760   -40.9160   -18.2650 h1         1 YD4       0.032700
     56 H21         18.0050   -41.0780   -20.0090 h1         1 YD4       0.032700
     57 H22         15.7840   -40.2980   -18.6930 hc         1 YD4       0.051200
     58 H23         16.1170   -39.7200   -20.3170 hc         1 YD4       0.051200
     59 H24         15.9770   -37.2120   -15.6770 h1         1 YD4       0.022200
     60 H25         17.6000   -37.5350   -15.0650 h1         1 YD4       0.022200
     61 H26         18.1450   -35.1250   -15.2060 hc         1 YD4       0.064700
     62 H27         15.6150   -35.8110   -13.6370 hc         1 YD4       0.067950
     63 H28         17.2590   -36.1510   -13.1370 hc         1 YD4       0.067950
     64 H29         16.4140   -34.1120   -12.0070 h1         1 YD4       0.102950
     65 H30         17.7820   -33.7120   -13.0600 h1         1 YD4       0.102950
     66 H31         17.3710   -32.6660   -15.5680 h1         1 YD4       0.102950
     67 H32         15.7290   -32.3750   -16.1680 h1         1 YD4       0.102950
     68 H33         16.5830   -34.5240   -17.0610 hc         1 YD4       0.067950
     69 H34         15.2160   -34.8060   -16.0020 hc         1 YD4       0.067950
@<TRIPOS>BOND
     1     1     2 2   
     2     2     3 1   
     3     2     4 1   
     4     3    16 1   
     5     3    37 1   
     6     4     5 1   
     7     4     6 2   
     8     5    38 1   
     9     5    39 1   
    10     5    40 1   
    11     6     7 1   
    12     6    41 1   
    13     7     8 ar  
    14     7    16 ar  
    15     8     9 1   
    16     8    19 ar  
    17     9    10 ar  
    18     9    13 ar  
    19    10    11 ar  
    20    10    42 1   
    21    11    12 ar  
    22    12    14 ar  
    23    12    43 1   
    24    13    14 ar  
    25    13    44 1   
    26    14    15 1   
    27    15    45 1   
    28    15    46 1   
    29    15    47 1   
    30    16    17 ar  
    31    17    18 ar  
    32    17    20 1   
    33    18    19 ar  
    34    19    48 1   
    35    20    21 1   
    36    20    49 1   
    37    21    22 1   
    38    21    26 1   
    39    21    50 1   
    40    22    23 1   
    41    22    27 1   
    42    22    51 1   
    43    23    24 1   
    44    23    52 1   
    45    23    53 1   
    46    24    25 1   
    47    24    54 1   
    48    25    26 1   
    49    25    55 1   
    50    25    56 1   
    51    26    57 1   
    52    26    58 1   
    53    27    28 1   
    54    28    29 1   
    55    28    59 1   
    56    28    60 1   
    57    29    30 1   
    58    29    36 1   
    59    29    61 1   
    60    30    31 1   
    61    30    62 1   
    62    30    63 1   
    63    31    32 1   
    64    31    64 1   
    65    31    65 1   
    66    32    33 2   
    67    32    34 2   
    68    32    35 1   
    69    35    36 1   
    70    35    66 1   
    71    35    67 1   
    72    36    68 1   
    73    36    69 1   
@<TRIPOS>SUBSTRUCTURE
     1 YD4         1 TEMP              0 ****  ****    0 ROOT
