@<TRIPOS>MOLECULE
YD4
   69    73     1     0     0
SMALL
No Charge or Current Charge


@<TRIPOS>ATOM
      1 O3          11.8220   -37.4310   -14.7580 o          1 YD4      -0.555000
      2 C22         12.2130   -36.6340   -15.5980 c          1 YD4       0.555200
      3 N3          13.1240   -37.0120   -16.5540 ns         1 YD4      -0.375100
      4 C23         11.7820   -35.2090   -15.6850 cc         1 YD4      -0.135400
      5 C24         10.8080   -34.7520   -14.6240 c3         1 YD4      -0.042900
      6 C25         12.2800   -34.3890   -16.6830 cd         1 YD4      -0.121200
      7 C26         13.2430   -34.8730   -17.6870 ca         1 YD4      -0.038800
      8 C6          13.7960   -34.0600   -18.7120 cp         1 YD4      -0.107000
      9 C4          13.4100   -32.6310   -18.9040 cp         1 YD4      -0.073000
     10 C3          12.0630   -32.2410   -19.1190 ca         1 YD4       0.341900
     11 N           11.6690   -30.9590   -19.3050 nb         1 YD4      -0.660000
     12 C2          12.6240   -30.0000   -19.2880 ca         1 YD4       0.335900
     13 C5          14.3900   -31.6130   -18.9050 ca         1 YD4      -0.076000
     14 C1          13.9940   -30.2770   -19.0950 ca         1 YD4      -0.123300
     15 C           15.0260   -29.1600   -19.0840 c3         1 YD4      -0.043800
     16 C21         13.6800   -36.2070   -17.5890 ca         1 YD4      -0.027400
     17 C9          14.6840   -36.6690   -18.4870 ca         1 YD4       0.614900
     18 N8          15.2160   -35.9090   -19.4510 nb         1 YD4      -0.719000
     19 C7          14.7760   -34.6390   -19.5560 ca         1 YD4       0.369900
     20 N1          15.2130   -37.9540   -18.4240 nu         1 YD4      -0.934100
     21 C10         16.6170   -38.3240   -18.7680 c6         1 YD4       0.222500
     22 C14         17.6250   -38.2980   -17.5570 c6         1 YD4       0.144300
     23 C13         19.0550   -38.6970   -18.0540 c6         1 YD4       0.151800
     24 N2          19.0750   -39.4120   -19.3650 n7         1 YD4      -0.864400
     25 C12         17.9900   -40.4070   -19.4920 c6         1 YD4       0.159800
     26 C11         16.5890   -39.7430   -19.4050 c6         1 YD4      -0.077400
     27 O           17.7030   -37.0170   -16.8750 os         1 YD4      -0.453000
     28 C15         16.8010   -36.7910   -15.7750 c3         1 YD4       0.173600
     29 C16         16.9580   -35.3350   -15.2410 c6         1 YD4      -0.070700
     30 C20         15.9390   -35.0860   -14.0900 c6         1 YD4      -0.058400
     31 C19         16.1080   -33.6940   -13.4250 c6         1 YD4      -0.294900
     32 S           15.8720   -32.3160   -14.5810 s6         1 YD4       1.075000
     33 O1          16.3570   -31.0810   -13.9540 o          1 YD4      -0.519000
     34 O2          14.5100   -32.3780   -15.1260 o          1 YD4      -0.519000
     35 C18         17.0440   -32.8210   -15.8680 c6         1 YD4      -0.294900
     36 C17         16.8110   -34.2700   -16.3710 c6         1 YD4      -0.058400
     37 H1          13.4270   -37.9740   -16.4910 hn         1 YD4       0.315500
     38 H2           9.8820   -35.3380   -14.6620 hc         1 YD4       0.055367
     39 H3          11.2390   -34.8620   -13.6220 hc         1 YD4       0.055367
     40 H4          10.5380   -33.6970   -14.7540 hc         1 YD4       0.055367
     41 H5          11.9750   -33.3480   -16.6880 ha         1 YD4       0.199000
     42 H6          11.2730   -32.9910   -19.1440 h4         1 YD4       0.025100
     43 H7          12.2800   -28.9780   -19.4360 h4         1 YD4       0.019100
     44 H8          15.4380   -31.8590   -18.7500 ha         1 YD4       0.117000
     45 H9          15.3910   -28.9750   -18.0670 hc         1 YD4       0.046367
     46 H10         15.8900   -29.4150   -19.7090 hc         1 YD4       0.046367
     47 H11         14.6090   -28.2200   -19.4650 hc         1 YD4       0.046367
     48 H12         15.2300   -34.0460   -20.3500 h4         1 YD4       0.025100
     49 H13         14.6780   -38.6140   -17.8740 hn         1 YD4       0.470000
     50 H14         17.0270   -37.6470   -19.5360 h1         1 YD4       0.118700
     51 H15         17.3050   -39.0580   -16.8290 h1         1 YD4       0.027700
     52 H16         19.5160   -39.3370   -17.2870 h1         1 YD4       0.046700
     53 H17         19.6820   -37.7960   -18.1370 h1         1 YD4       0.046700
     54 H18         19.9870   -39.8760   -19.4820 hn         1 YD4       0.421000
     55 H20         18.0920   -41.1480   -18.6840 h1         1 YD4       0.032700
     56 H21         18.0850   -40.9460   -20.4460 h1         1 YD4       0.032700
     57 H22         15.9260   -40.4090   -18.8360 hc         1 YD4       0.051200
     58 H23         16.1580   -39.6710   -20.4120 hc         1 YD4       0.051200
     59 H24         15.7620   -36.9450   -16.0740 h1         1 YD4       0.022200
     60 H25         17.0180   -37.4930   -14.9590 h1         1 YD4       0.022200
     61 H26         17.9760   -35.2730   -14.8300 hc         1 YD4       0.064700
     62 H27         14.9130   -35.1940   -14.4710 hc         1 YD4       0.067950
     63 H28         16.0590   -35.8630   -13.3210 hc         1 YD4       0.067950
     64 H29         15.3720   -33.5420   -12.6250 h1         1 YD4       0.102950
     65 H30         17.1170   -33.5720   -13.0130 h1         1 YD4       0.102950
     66 H31         18.0430   -32.7110   -15.4270 h1         1 YD4       0.102950
     67 H32         16.9290   -32.0930   -16.6810 h1         1 YD4       0.102950
     68 H33         17.5240   -34.4790   -17.1810 hc         1 YD4       0.067950
     69 H34         15.8140   -34.3470   -16.8180 hc         1 YD4       0.067950
@<TRIPOS>BOND
     1     1     2 2   
     2     2     3 1   
     3     2     4 1   
     4     3    16 1   
     5     3    37 1   
     6     4     5 1   
     7     4     6 2   
     8     5    38 1   
     9     5    39 1   
    10     5    40 1   
    11     6     7 1   
    12     6    41 1   
    13     7     8 ar  
    14     7    16 ar  
    15     8     9 1   
    16     8    19 ar  
    17     9    10 ar  
    18     9    13 ar  
    19    10    11 ar  
    20    10    42 1   
    21    11    12 ar  
    22    12    14 ar  
    23    12    43 1   
    24    13    14 ar  
    25    13    44 1   
    26    14    15 1   
    27    15    45 1   
    28    15    46 1   
    29    15    47 1   
    30    16    17 ar  
    31    17    18 ar  
    32    17    20 1   
    33    18    19 ar  
    34    19    48 1   
    35    20    21 1   
    36    20    49 1   
    37    21    22 1   
    38    21    26 1   
    39    21    50 1   
    40    22    23 1   
    41    22    27 1   
    42    22    51 1   
    43    23    24 1   
    44    23    52 1   
    45    23    53 1   
    46    24    25 1   
    47    24    54 1   
    48    25    26 1   
    49    25    55 1   
    50    25    56 1   
    51    26    57 1   
    52    26    58 1   
    53    27    28 1   
    54    28    29 1   
    55    28    59 1   
    56    28    60 1   
    57    29    30 1   
    58    29    36 1   
    59    29    61 1   
    60    30    31 1   
    61    30    62 1   
    62    30    63 1   
    63    31    32 1   
    64    31    64 1   
    65    31    65 1   
    66    32    33 2   
    67    32    34 2   
    68    32    35 1   
    69    35    36 1   
    70    35    66 1   
    71    35    67 1   
    72    36    68 1   
    73    36    69 1   
@<TRIPOS>SUBSTRUCTURE
     1 YD4         1 TEMP              0 ****  ****    0 ROOT
