@<TRIPOS>MOLECULE
YD7
   68    72     1     0     0
SMALL
No Charge or Current Charge


@<TRIPOS>ATOM
      1 N1          12.3410    10.4240    51.1320 ns         1 YD7      -0.525900
      2 N3          15.8180     7.1930    57.0000 nb         1 YD7      -0.252000
      3 C4          15.1480    11.8640    45.5940 c3         1 YD7       0.171300
      4 C5          15.1000    10.6270    44.6720 c3         1 YD7      -0.106100
      5 C6          15.4810    13.1560    44.8250 c3         1 YD7      -0.106100
      6 C7          12.1530    11.5730    48.0160 cy         1 YD7       0.096000
      7 C8          11.9290     9.3760    52.0730 c3         1 YD7       0.170000
      8 C10          9.7300     8.6130    53.2370 c3         1 YD7      -0.069400
      9 C13         12.8920     7.8850    53.9290 ca         1 YD7      -0.077300
     10 C15         14.1930     9.8120    53.2190 ca         1 YD7      -0.109000
     11 C17         15.0860     8.3490    54.9790 cp         1 YD7      -0.159500
     12 C20         15.2340     5.4170    59.3210 cc         1 YD7       0.182000
     13 C21         13.9570     5.6610    58.9260 cd         1 YD7      -0.181000
     14 C24         18.4190     8.0510    56.8460 ca         1 YD7       0.151900
     15 C26         13.9100     7.5660    54.8520 ca         1 YD7      -0.066000
     16 C1          12.5770    10.2570    49.7970 c          1 YD7       0.673100
     17 C11         10.3670     7.7120    54.3180 c3         1 YD7      -0.072400
     18 C12         11.6560     6.9880    53.8710 c3         1 YD7      -0.033100
     19 C14         13.0280     9.0190    53.0920 ca         1 YD7      -0.067300
     20 C16         15.1990     9.4840    54.1410 ca         1 YD7      -0.085000
     21 C18         16.1600     7.9950    55.9720 cp         1 YD7       0.229500
     22 C19         16.7690     6.8680    57.8920 ca         1 YD7       0.390900
     23 C2          14.2130    11.1780    48.5620 cy         1 YD7       0.096000
     24 C23         15.1510     4.3820    60.2790 cc         1 YD7       0.203900
     25 C25         17.4980     8.4500    55.8650 ca         1 YD7      -0.275000
     26 C3          13.4220    11.1410    47.2080 cy         1 YD7       0.134300
     27 C9          10.6060     9.7930    52.7580 c3         1 YD7      -0.081400
     28 N2          12.9480    11.5350    49.2930 nj         1 YD7      -0.451800
     29 N4          16.4200     6.0400    58.9520 nu         1 YD7      -0.896900
     30 N5          13.1760     4.7500    59.6490 na         1 YD7       0.130800
     31 N6          13.9250     3.9490    60.5020 nd         1 YD7      -0.510800
     32 N7          18.0540     7.2550    57.8680 nb         1 YD7      -0.244000
     33 O1          12.4570     9.1510    49.2830 o          1 YD7      -0.636100
     34 O2          13.8500    12.0600    46.1860 os         1 YD7      -0.442000
     35 H1          12.4550    11.3660    51.4790 hn         1 YD7       0.306500
     36 H2          15.9140    11.7140    46.3670 h1         1 YD7       0.028700
     37 H3          14.9750     9.7060    45.2520 hc         1 YD7       0.043700
     38 H4          14.2740    10.7050    43.9550 hc         1 YD7       0.043700
     39 H5          16.0360    10.5370    44.1070 hc         1 YD7       0.043700
     40 H6          16.4680    13.0780    44.3540 hc         1 YD7       0.043700
     41 H7          14.7380    13.3470    44.0420 hc         1 YD7       0.043700
     42 H8          15.4970    14.0140    45.5070 hc         1 YD7       0.043700
     43 H9          11.8180    12.5890    47.7820 h1         1 YD7       0.058950
     44 H10         11.3010    10.8850    47.9420 h1         1 YD7       0.058950
     45 H11         11.7180     8.4710    51.4870 h1         1 YD7       0.088700
     46 H12          8.7920     9.0190    53.6350 hc         1 YD7       0.041700
     47 H13          9.4550     7.9970    52.3720 hc         1 YD7       0.041700
     48 H14         14.3380    10.6980    52.6080 ha         1 YD7       0.111000
     49 H15         13.5460     6.3770    58.2280 h4         1 YD7       0.177000
     50 H16         11.4570     3.5580    59.3920 h1         1 YD7       0.055033
     51 H17         11.2670     4.9350    60.5210 h1         1 YD7       0.055033
     52 H18         11.3230     5.2240    58.7560 h1         1 YD7       0.055033
     53 H19         19.4600     8.3680    56.8120 h4         1 YD7       0.021100
     54 H20         13.7860     6.6860    55.4790 ha         1 YD7       0.125000
     55 H21         10.5690     8.3000    55.2210 hc         1 YD7       0.041200
     56 H22          9.6260     6.9530    54.6020 hc         1 YD7       0.041200
     57 H23         11.5220     6.5760    52.8630 hc         1 YD7       0.050700
     58 H24         11.7930     6.1170    54.5230 hc         1 YD7       0.050700
     59 H25         16.0660    10.1340    54.2080 ha         1 YD7       0.113000
     60 H26         14.6950    10.2310    48.8400 h1         1 YD7       0.058950
     61 H27         14.9480    11.9880    48.6160 h1         1 YD7       0.058950
     62 H28         15.9680     3.9310    60.8260 h4         1 YD7       0.038100
     63 H29         17.8230     9.0780    55.0420 ha         1 YD7       0.136000
     64 H30         13.3260    10.1310    46.7960 h1         1 YD7       0.053700
     65 H31         10.8220    10.4660    53.5980 hc         1 YD7       0.046200
     66 H32         10.0040    10.3720    52.0450 hc         1 YD7       0.046200
     67 H33         17.2250     5.7740    59.5230 hn         1 YD7       0.517000
     68 C22         11.7150     4.6080    59.5750 c3         1 YD7       0.076900
@<TRIPOS>BOND
     1     1     7 1   
     2     1    16 1   
     3     1    35 1   
     4     2    21 ar  
     5     2    22 ar  
     6     3     4 1   
     7     3     5 1   
     8     3    34 1   
     9     3    36 1   
    10     4    37 1   
    11     4    38 1   
    12     4    39 1   
    13     5    40 1   
    14     5    41 1   
    15     5    42 1   
    16     6    26 1   
    17     6    28 1   
    18     6    43 1   
    19     6    44 1   
    20     7    19 1   
    21     7    27 1   
    22     7    45 1   
    23     8    17 1   
    24     8    27 1   
    25     8    46 1   
    26     8    47 1   
    27     9    15 ar  
    28     9    18 1   
    29     9    19 ar  
    30    10    19 ar  
    31    10    20 ar  
    32    10    48 1   
    33    11    15 ar  
    34    11    20 ar  
    35    11    21 1   
    36    12    13 2   
    37    12    24 1   
    38    12    29 1   
    39    13    30 1   
    40    13    49 1   
    41    14    25 ar  
    42    14    32 ar  
    43    14    53 1   
    44    15    54 1   
    45    16    28 1   
    46    16    33 2   
    47    17    18 1   
    48    17    55 1   
    49    17    56 1   
    50    18    57 1   
    51    18    58 1   
    52    20    59 1   
    53    21    25 ar  
    54    22    29 1   
    55    22    32 ar  
    56    23    26 1   
    57    23    28 1   
    58    23    60 1   
    59    23    61 1   
    60    24    31 2   
    61    24    62 1   
    62    25    63 1   
    63    26    34 1   
    64    26    64 1   
    65    27    65 1   
    66    27    66 1   
    67    29    67 1   
    68    30    31 1   
    69    30    68 1   
    70    50    68 1   
    71    51    68 1   
    72    52    68 1   
@<TRIPOS>SUBSTRUCTURE
     1 YD7         1 TEMP              0 ****  ****    0 ROOT
