@<TRIPOS>MOLECULE
YD7
   68    72     1     0     0
SMALL
abcg2


@<TRIPOS>ATOM
      1 N1          12.6290     9.8420    50.9190 ns         1 YD7      -0.525900
      2 N3          15.7420     6.2550    56.5810 nb         1 YD7      -0.252000
      3 C4          14.2140    12.9370    46.0380 c3         1 YD7       0.171300
      4 C5          15.5300    13.0410    45.2810 c3         1 YD7      -0.106100
      5 C6          13.0840    13.6300    45.3010 c3         1 YD7      -0.106100
      6 C7          13.9330     9.5010    47.4850 cy         1 YD7       0.096000
      7 C8          12.0960     9.1810    52.0850 c3         1 YD7       0.170000
      8 C10         10.1940     9.5740    53.7690 c3         1 YD7      -0.069400
      9 C13         12.7870     7.6040    53.9370 ca         1 YD7      -0.077300
     10 C15         14.5130     8.7290    52.6980 ca         1 YD7      -0.109000
     11 C17         15.1300     7.2560    54.4990 cp         1 YD7      -0.159500
     12 C20         15.0150     5.4910    59.2230 cc         1 YD7       0.182000
     13 C21         13.8490     6.0690    58.7600 cd         1 YD7      -0.181000
     14 C24         18.2940     5.7890    55.8600 ca         1 YD7       0.151900
     15 C26         13.7740     7.0110    54.7100 ca         1 YD7      -0.066000
     16 C1          12.9330     9.1600    49.7810 c          1 YD7       0.673100
     17 C11         10.6170     8.5570    54.8230 c3         1 YD7      -0.072400
     18 C12         11.3430     7.3320    54.2590 c3         1 YD7      -0.033100
     19 C14         13.1610     8.4830    52.9110 ca         1 YD7      -0.067300
     20 C16         15.4890     8.1270    53.4750 ca         1 YD7      -0.085000
     21 C18         16.1420     6.6200    55.3640 cp         1 YD7       0.229500
     22 C19         16.6370     5.6840    57.3790 ca         1 YD7       0.390900
     23 C2          13.9250    11.2810    48.6970 cy         1 YD7       0.096000
     24 C23         14.7000     5.0710    60.5290 cc         1 YD7       0.203900
     25 C25         17.4490     6.3980    54.9440 ca         1 YD7      -0.275000
     26 C3          14.4550    10.9370    47.2800 cy         1 YD7       0.134300
     27 C9          11.3100    10.1940    52.9350 c3         1 YD7      -0.081400
     28 N2          13.4940     9.8990    48.8040 nj         1 YD7      -0.451800
     29 N4          16.2540     5.3170    58.6240 nu         1 YD7      -0.896900
     30 N5          12.9530     5.9630    59.7660 na         1 YD7       0.130800
     31 N6          13.4500     5.3690    60.8360 nd         1 YD7      -0.510800
     32 N7          17.9150     5.4290    57.0710 nb         1 YD7      -0.244000
     33 O1          12.7020     7.9620    49.6340 o          1 YD7      -0.636100
     34 O2          13.8280    11.5780    46.2180 os         1 YD7      -0.442000
     35 H1          12.9120    10.8040    51.0170 hn         1 YD7       0.306500
     36 H2          14.3330    13.4160    47.0200 h1         1 YD7       0.028700
     37 H3          16.3460    12.5350    45.7990 hc         1 YD7       0.043700
     38 H4          15.4390    12.6090    44.2830 hc         1 YD7       0.043700
     39 H5          15.8170    14.0880    45.1700 hc         1 YD7       0.043700
     40 H6          13.3250    14.6810    45.1450 hc         1 YD7       0.043700
     41 H7          12.9170    13.1760    44.3230 hc         1 YD7       0.043700
     42 H8          12.1530    13.5800    45.8670 hc         1 YD7       0.043700
     43 H9          13.1260     9.2200    46.8040 h1         1 YD7       0.058950
     44 H10         14.6960     8.7200    47.4730 h1         1 YD7       0.058950
     45 H11         11.3920     8.4240    51.7260 h1         1 YD7       0.088700
     46 H12          9.6480    10.3830    54.2610 hc         1 YD7       0.041700
     47 H13          9.4790     9.0970    53.0900 hc         1 YD7       0.041700
     48 H14         14.8190     9.4120    51.9170 ha         1 YD7       0.111000
     49 H15         13.5990     6.5330    57.8240 h4         1 YD7       0.177000
     50 H16         10.9080     5.6480    60.0300 h1         1 YD7       0.055033
     51 H17         11.4770     7.2690    60.4700 h1         1 YD7       0.055033
     52 H18         11.3500     6.8050    58.7670 h1         1 YD7       0.055033
     53 H19         19.3260     5.5810    55.5950 h4         1 YD7       0.021100
     54 H20         13.4800     6.3290    55.4980 ha         1 YD7       0.125000
     55 H21         11.2470     9.0340    55.5800 hc         1 YD7       0.041200
     56 H22          9.7170     8.2190    55.3430 hc         1 YD7       0.041200
     57 H23         10.8070     6.9720    53.3740 hc         1 YD7       0.050700
     58 H24         11.2970     6.5220    54.9890 hc         1 YD7       0.050700
     59 H25         16.5290     8.3650    53.2900 ha         1 YD7       0.113000
     60 H26         14.6850    11.5750    49.4250 h1         1 YD7       0.058950
     61 H27         13.1100    12.0110    48.7160 h1         1 YD7       0.058950
     62 H28         15.3420     4.5690    61.2370 h4         1 YD7       0.038100
     63 H29         17.8000     6.6550    53.9560 ha         1 YD7       0.136000
     64 H30         15.5460    10.9940    47.2160 h1         1 YD7       0.053700
     65 H31         12.0020    10.7510    53.5730 hc         1 YD7       0.046200
     66 H32         10.8540    10.9190    52.2570 hc         1 YD7       0.046200
     67 H33         16.9730     4.8910    59.1880 hn         1 YD7       0.517000
     68 C22         11.5950     6.4490    59.7640 c3         1 YD7       0.076900
@<TRIPOS>BOND
     1     1     7 1   
     2     1    16 1   
     3     1    35 1   
     4     2    21 ar  
     5     2    22 ar  
     6     3     4 1   
     7     3     5 1   
     8     3    34 1   
     9     3    36 1   
    10     4    37 1   
    11     4    38 1   
    12     4    39 1   
    13     5    40 1   
    14     5    41 1   
    15     5    42 1   
    16     6    26 1   
    17     6    28 1   
    18     6    43 1   
    19     6    44 1   
    20     7    19 1   
    21     7    27 1   
    22     7    45 1   
    23     8    17 1   
    24     8    27 1   
    25     8    46 1   
    26     8    47 1   
    27     9    15 ar  
    28     9    18 1   
    29     9    19 ar  
    30    10    19 ar  
    31    10    20 ar  
    32    10    48 1   
    33    11    15 ar  
    34    11    20 ar  
    35    11    21 1   
    36    12    13 2   
    37    12    24 1   
    38    12    29 1   
    39    13    30 1   
    40    13    49 1   
    41    14    25 ar  
    42    14    32 ar  
    43    14    53 1   
    44    15    54 1   
    45    16    28 1   
    46    16    33 2   
    47    17    18 1   
    48    17    55 1   
    49    17    56 1   
    50    18    57 1   
    51    18    58 1   
    52    20    59 1   
    53    21    25 ar  
    54    22    29 1   
    55    22    32 ar  
    56    23    26 1   
    57    23    28 1   
    58    23    60 1   
    59    23    61 1   
    60    24    31 2   
    61    24    62 1   
    62    25    63 1   
    63    26    34 1   
    64    26    64 1   
    65    27    65 1   
    66    27    66 1   
    67    29    67 1   
    68    30    31 1   
    69    30    68 1   
    70    50    68 1   
    71    51    68 1   
    72    52    68 1   
@<TRIPOS>SUBSTRUCTURE
     1 YD7         1 TEMP              0 ****  ****    0 ROOT
