@<TRIPOS>MOLECULE
YD8
   51    54     1     0     0
SMALL
No Charge or Current Charge


@<TRIPOS>ATOM
      1 C1          28.4950    30.6000    41.7340 ca         1 YD8      -0.146000
      2 C11         32.9440    30.0630    42.3470 c6         1 YD8       0.165800
      3 C12         31.3750    30.2100    42.3690 c6         1 YD8       0.212800
      4 C15         25.0780    30.4250    40.8630 cc         1 YD8       0.500400
      5 C17         23.7050    29.9760    40.8920 cc         1 YD8      -0.223900
      6 C18         22.6010    30.3700    40.1610 cd         1 YD8      -0.066300
      7 C19         21.4730    29.6430    40.6900 cd         1 YD8      -0.263600
      8 C2          27.1850    30.6980    41.2530 ca         1 YD8       0.118400
      9 C20         21.9340    28.7790    41.6740 cc         1 YD8      -0.064300
     10 C22         21.2090    27.7870    42.5520 c3         1 YD8      -0.034800
     11 C23         20.0040    29.7260    40.3350 c          1 YD8       0.613700
     12 C24         19.4770    30.7800    39.3620 c3         1 YD8      -0.190100
     13 C26         22.5880    31.3590    39.0110 c3         1 YD8      -0.028800
     14 C3          26.8520    31.6300    40.3180 ca         1 YD8      -0.122200
     15 C4          27.7740    32.5340    39.7860 ca         1 YD8      -0.076000
     16 C5          29.1010    32.4530    40.2560 ca         1 YD8      -0.146000
     17 C6          29.4770    31.4900    41.2310 ca         1 YD8       0.307000
     18 C8          31.6300    32.6880    41.8610 c6         1 YD8       0.212800
     19 C9          32.9400    32.5060    42.6970 c6         1 YD8       0.165800
     20 N10         33.7250    31.3370    42.2150 n3         1 YD8      -0.730600
     21 N14         25.5240    31.4740    40.0660 na         1 YD8      -0.298600
     22 N16         26.0830    29.9320    41.6170 nd         1 YD8      -0.616100
     23 N21         23.3000    28.9910    41.7780 na         1 YD8      -0.068000
     24 N7          30.8210    31.4310    41.6900 nh         1 YD8      -0.808400
     25 O25         19.1800    28.9700    40.8360 o          1 YD8      -0.557100
     26 H1          28.7330    29.8590    42.4880 ha         1 YD8       0.127000
     27 H2          33.2150    29.3990    41.5130 h1         1 YD8       0.039200
     28 H3          33.2330    29.5310    43.2650 h1         1 YD8       0.039200
     29 H4          31.0570    30.2240    43.4220 h1         1 YD8       0.042700
     30 H5          30.9480    29.2980    41.9250 h1         1 YD8       0.042700
     31 H6          35.6390    30.4100    42.3360 h1         1 YD8       0.030033
     32 H7          35.6510    32.1700    42.5790 h1         1 YD8       0.030033
     33 H8          35.0510    31.1000    43.8690 h1         1 YD8       0.030033
     34 H9          20.7190    27.0140    41.9490 hc         1 YD8       0.059033
     35 H10         21.8990    27.2810    43.2390 hc         1 YD8       0.059033
     36 H11         20.4450    28.2850    43.1600 hc         1 YD8       0.059033
     37 H12         18.3860    30.8710    39.4060 hc         1 YD8       0.057033
     38 H13         19.9680    31.7420    39.5400 hc         1 YD8       0.057033
     39 H14         19.7760    30.4990    38.3470 hc         1 YD8       0.057033
     40 H15         22.3490    32.3720    39.3560 hc         1 YD8       0.041700
     41 H16         23.5440    31.3920    38.4820 hc         1 YD8       0.041700
     42 H17         21.8730    31.0750    38.2370 hc         1 YD8       0.041700
     43 H18         27.4840    33.2690    39.0380 ha         1 YD8       0.116000
     44 H19         29.8410    33.1360    39.8510 ha         1 YD8       0.116000
     45 H20         31.9190    33.0670    40.8710 h1         1 YD8       0.042700
     46 H21         31.0190    33.4670    42.3400 h1         1 YD8       0.042700
     47 H22         33.5320    33.4300    42.6190 h1         1 YD8       0.039200
     48 H23         32.6780    32.3800    43.7590 h1         1 YD8       0.039200
     49 H25         24.9510    32.0260    39.4470 hn         1 YD8       0.360000
     50 H27         23.9170    28.5130    42.4290 hn         1 YD8       0.371000
     51 C13         35.0880    31.2490    42.7810 c3         1 YD8       0.163100
@<TRIPOS>BOND
     1     1     8 ar  
     2     1    17 ar  
     3     1    26 1   
     4     2     3 1   
     5     2    20 1   
     6     2    27 1   
     7     2    28 1   
     8     3    24 1   
     9     3    29 1   
    10     3    30 1   
    11     4     5 1   
    12     4    21 1   
    13     4    22 2   
    14     5     6 2   
    15     5    23 1   
    16     6     7 1   
    17     6    13 1   
    18     7     9 2   
    19     7    11 1   
    20     8    14 ar  
    21     8    22 1   
    22     9    10 1   
    23     9    23 1   
    24    10    34 1   
    25    10    35 1   
    26    10    36 1   
    27    11    12 1   
    28    11    25 2   
    29    12    37 1   
    30    12    38 1   
    31    12    39 1   
    32    13    40 1   
    33    13    41 1   
    34    13    42 1   
    35    14    15 ar  
    36    14    21 1   
    37    15    16 ar  
    38    15    43 1   
    39    16    17 ar  
    40    16    44 1   
    41    17    24 1   
    42    18    19 1   
    43    18    24 1   
    44    18    45 1   
    45    18    46 1   
    46    19    20 1   
    47    19    47 1   
    48    19    48 1   
    49    20    51 1   
    50    21    49 1   
    51    23    50 1   
    52    31    51 1   
    53    32    51 1   
    54    33    51 1   
@<TRIPOS>SUBSTRUCTURE
     1 YD8         1 TEMP              0 ****  ****    0 ROOT
