@<TRIPOS>MOLECULE
YD8
   51    54     1     0     0
SMALL
abcg2


@<TRIPOS>ATOM
      1 C1          28.5260    30.5840    41.5690 ca         1 YD8      -0.146000
      2 C11         32.7440    29.9830    42.2110 c6         1 YD8       0.165800
      3 C12         31.2470    30.2410    42.3510 c6         1 YD8       0.212800
      4 C15         25.1120    30.6340    40.7720 cc         1 YD8       0.500400
      5 C17         23.7490    30.1630    40.8320 cc         1 YD8      -0.223900
      6 C18         22.6130    30.4100    40.0930 cd         1 YD8      -0.066300
      7 C19         21.5700    29.6270    40.6860 cd         1 YD8      -0.263600
      8 C2          27.2140    30.7760    41.1360 ca         1 YD8       0.118400
      9 C20         22.1330    28.9220    41.7560 cc         1 YD8      -0.064300
     10 C22         21.5530    27.9680    42.7370 c3         1 YD8      -0.034800
     11 C23         20.1520    29.5320    40.3460 c          1 YD8       0.613700
     12 C24         19.5750    30.4670    39.3130 c3         1 YD8      -0.190100
     13 C26         22.5450    31.2750    38.8750 c3         1 YD8      -0.028800
     14 C3          26.8690    31.8880    40.3590 ca         1 YD8      -0.122200
     15 C4          27.8170    32.8310    39.9870 ca         1 YD8      -0.076000
     16 C5          29.1170    32.6310    40.4110 ca         1 YD8      -0.146000
     17 C6          29.5000    31.5150    41.2010 ca         1 YD8       0.307000
     18 C8          31.6130    32.5980    41.7660 c6         1 YD8       0.212800
     19 C9          32.7880    32.3450    42.6920 c6         1 YD8       0.165800
     20 N10         33.5370    31.2060    42.2190 n3         1 YD8      -0.730600
     21 N14         25.5180    31.7660    40.1400 na         1 YD8      -0.298600
     22 N16         26.1000    30.0120    41.3760 nd         1 YD8      -0.616100
     23 N21         23.4240    29.2620    41.8150 na         1 YD8      -0.068000
     24 N7          30.8280    31.3840    41.5730 nh         1 YD8      -0.808400
     25 O25         19.4280    28.7190    40.8990 o          1 YD8      -0.557100
     26 H1          28.7510    29.7330    42.1970 ha         1 YD8       0.127000
     27 H2          32.9350    29.4350    41.2830 h1         1 YD8       0.039200
     28 H3          33.0270    29.3140    43.0350 h1         1 YD8       0.039200
     29 H4          30.9730    30.3430    43.4100 h1         1 YD8       0.042700
     30 H5          30.7370    29.3480    41.9880 h1         1 YD8       0.042700
     31 H6          35.3660    30.2230    42.3970 h1         1 YD8       0.030033
     32 H7          35.4090    31.9420    42.7740 h1         1 YD8       0.030033
     33 H8          34.7280    30.7960    43.9430 h1         1 YD8       0.030033
     34 H9          21.1740    27.0730    42.2450 hc         1 YD8       0.059033
     35 H10         22.3060    27.6630    43.4630 hc         1 YD8       0.059033
     36 H11         20.7190    28.4120    43.2810 hc         1 YD8       0.059033
     37 H12         18.4880    30.4160    39.3330 hc         1 YD8       0.057033
     38 H13         19.8880    31.4970    39.4760 hc         1 YD8       0.057033
     39 H14         19.9090    30.1830    38.3140 hc         1 YD8       0.057033
     40 H15         22.1060    32.2520    39.0850 hc         1 YD8       0.041700
     41 H16         23.5320    31.4400    38.4470 hc         1 YD8       0.041700
     42 H17         21.9490    30.8160    38.0890 hc         1 YD8       0.041700
     43 H18         27.5620    33.6940    39.3870 ha         1 YD8       0.116000
     44 H19         29.8650    33.3510    40.1110 ha         1 YD8       0.116000
     45 H20         31.9980    32.9610    40.8070 h1         1 YD8       0.042700
     46 H21         30.9970    33.3990    42.1890 h1         1 YD8       0.042700
     47 H22         33.4280    33.2290    42.6670 h1         1 YD8       0.039200
     48 H23         32.4430    32.2420    43.7350 h1         1 YD8       0.039200
     49 H25         24.9280    32.4560    39.7040 hn         1 YD8       0.360000
     50 H27         24.0850    28.9190    42.4970 hn         1 YD8       0.371000
     51 C13         34.8110    31.0350    42.8710 c3         1 YD8       0.163100
@<TRIPOS>BOND
     1     1     8 ar  
     2     1    17 ar  
     3     1    26 1   
     4     2     3 1   
     5     2    20 1   
     6     2    27 1   
     7     2    28 1   
     8     3    24 1   
     9     3    29 1   
    10     3    30 1   
    11     4     5 1   
    12     4    21 1   
    13     4    22 2   
    14     5     6 2   
    15     5    23 1   
    16     6     7 1   
    17     6    13 1   
    18     7     9 2   
    19     7    11 1   
    20     8    14 ar  
    21     8    22 1   
    22     9    10 1   
    23     9    23 1   
    24    10    34 1   
    25    10    35 1   
    26    10    36 1   
    27    11    12 1   
    28    11    25 2   
    29    12    37 1   
    30    12    38 1   
    31    12    39 1   
    32    13    40 1   
    33    13    41 1   
    34    13    42 1   
    35    14    15 ar  
    36    14    21 1   
    37    15    16 ar  
    38    15    43 1   
    39    16    17 ar  
    40    16    44 1   
    41    17    24 1   
    42    18    19 1   
    43    18    24 1   
    44    18    45 1   
    45    18    46 1   
    46    19    20 1   
    47    19    47 1   
    48    19    48 1   
    49    20    51 1   
    50    21    49 1   
    51    23    50 1   
    52    31    51 1   
    53    32    51 1   
    54    33    51 1   
@<TRIPOS>SUBSTRUCTURE
     1 YD8         1 TEMP              0 ****  ****    0 ROOT
