@<TRIPOS>MOLECULE
YDA
   74    79     1     0     0
SMALL
No Charge or Current Charge


@<TRIPOS>ATOM
      1 N1         -11.0580     7.8560   -16.2000 n3         1 YDA      -0.706600
      2 N3         -12.2490    10.0980    -8.5850 nc         1 YDA      -0.298000
      3 C4          -9.3890     8.5630   -18.1020 cy         1 YDA       0.141100
      4 C5         -10.6320     7.0020   -18.6430 cy         1 YDA       0.141100
      5 C6         -10.4510     8.6170   -15.0790 c3         1 YDA       0.172800
      6 C7         -11.4340     9.3760   -14.1610 c3         1 YDA      -0.084400
      7 C8         -12.4140     8.4810   -13.3660 c3         1 YDA       0.160000
      8 C10        -12.7600     9.9670    -9.8480 cc         1 YDA       0.130500
      9 C13        -14.5690    13.5180    -7.7900 c3         1 YDA      -0.105100
     10 C15        -13.9160    10.6880    -9.9660 cd         1 YDA      -0.186000
     11 C17        -14.9270     8.3980   -13.9630 ca         1 YDA      -0.104000
     12 C20        -16.8700     6.7960   -16.8630 cp         1 YDA       0.224500
     13 C21        -17.5310     6.1010   -18.9620 ca         1 YDA       0.388900
     14 C22        -15.9810     5.7060   -20.9460 cc         1 YDA       0.178000
     15 C26        -19.1860     6.3410   -17.4050 ca         1 YDA       0.152900
     16 C28        -14.4100     6.8260   -16.2120 ca         1 YDA      -0.057000
     17 C1         -13.3440     7.2160   -15.3780 ca         1 YDA      -0.075300
     18 C12        -16.2170    12.4280    -9.3500 c3         1 YDA      -0.105100
     19 C14        -15.8980    11.5010    -7.0320 c3         1 YDA      -0.105100
     20 C16        -13.5920     8.0200   -14.2420 ca         1 YDA      -0.065300
     21 C18        -15.9820     7.9970   -14.7970 ca         1 YDA      -0.080000
     22 C19        -15.7510     7.2050   -15.9470 cp         1 YDA      -0.156500
     23 C2         -11.9340     6.7530   -15.7370 c3         1 YDA       0.207100
     24 C23        -15.7940     5.0350   -22.1750 cc         1 YDA       0.201900
     25 C25        -14.7860     6.2840   -20.6540 cd         1 YDA      -0.182000
     26 C27        -18.2260     6.7390   -16.4600 ca         1 YDA      -0.274000
     27 C3         -10.0770     7.4460   -17.2480 cy         1 YDA       0.108500
     28 N10        -18.8380     6.0200   -18.6660 nb         1 YDA      -0.244000
     29 N2         -12.8380     9.1690   -12.1400 ns         1 YDA      -0.514900
     30 N4         -13.0410    10.8770    -7.8940 nd         1 YDA      -0.204800
     31 N5         -14.0780    11.2570    -8.7160 na         1 YDA       0.128800
     32 N6         -16.5430     6.4640   -18.1270 nb         1 YDA      -0.249000
     33 N7         -17.1910     5.7600   -20.2650 nu         1 YDA      -0.895900
     34 N8         -14.5730     5.1320   -22.6650 nd         1 YDA      -0.510800
     35 N9         -13.9390     5.9160   -21.7070 na         1 YDA       0.133800
     36 O1          -9.4430     7.6320   -19.2460 oq         1 YDA      -0.452000
     37 H2          -8.3650     8.8220   -17.8110 h1         1 YDA       0.057950
     38 H3         -10.0040     9.4550   -18.2740 h1         1 YDA       0.057950
     39 H4         -11.5580     7.5030   -18.9490 h1         1 YDA       0.057950
     40 H5         -10.6760     5.9210   -18.8160 h1         1 YDA       0.057950
     41 H6          -9.8410     7.9440   -14.4610 h1         1 YDA       0.033700
     42 H7          -9.7630     9.3690   -15.4880 h1         1 YDA       0.033700
     43 H8         -10.8250     9.9520   -13.4540 hc         1 YDA       0.053200
     44 H9         -11.9980    10.1080   -14.7500 hc         1 YDA       0.053200
     45 H10        -11.8690     7.5800   -13.0500 h1         1 YDA       0.085700
     46 H11        -15.3560    14.2040    -7.4550 hc         1 YDA       0.054144
     47 H12        -13.8630    13.3890    -6.9600 hc         1 YDA       0.054144
     48 H13        -14.0330    13.9960    -8.6190 hc         1 YDA       0.054144
     49 H14        -14.5980    10.8310   -10.7940 h4         1 YDA       0.164000
     50 H15        -15.1700     9.0170   -13.1040 ha         1 YDA       0.116000
     51 H16        -12.2520     6.3080   -22.9150 h1         1 YDA       0.059700
     52 H17        -12.3580     7.2800   -21.4180 h1         1 YDA       0.059700
     53 H18        -11.9000     5.5520   -21.3320 h1         1 YDA       0.059700
     54 H19        -20.2420     6.2760   -17.1510 h4         1 YDA       0.022100
     55 H20        -14.1900     6.2110   -17.0820 ha         1 YDA       0.126000
     56 H21        -17.0140    13.0880    -8.9870 hc         1 YDA       0.054144
     57 H22        -15.7530    12.9130   -10.2180 hc         1 YDA       0.054144
     58 H23        -16.6860    11.4950    -9.6860 hc         1 YDA       0.054144
     59 H24        -16.7210    12.1340    -6.6770 hc         1 YDA       0.054144
     60 H25        -16.3170    10.5270    -7.3150 hc         1 YDA       0.054144
     61 H26        -15.2130    11.3420    -6.1900 hc         1 YDA       0.054144
     62 H27        -16.9880     8.3300   -14.5540 ha         1 YDA       0.117000
     63 H28        -12.0260     5.9960   -16.5270 h1         1 YDA       0.044700
     64 H29        -11.4840     6.2310   -14.8810 h1         1 YDA       0.044700
     65 H30        -16.5320     4.4700   -22.7300 h4         1 YDA       0.037100
     66 H31        -14.4730     6.9060   -19.8260 h4         1 YDA       0.179000
     67 H32        -18.5300     6.9800   -15.4470 ha         1 YDA       0.137000
     68 H33         -9.3460     6.7290   -16.8570 h1         1 YDA       0.046700
     69 H34        -13.6690     9.7420   -12.1790 hn         1 YDA       0.309500
     70 H35        -17.9850     5.3940   -20.7960 hn         1 YDA       0.517000
     71 C9         -12.1410     9.1510   -10.9440 c          1 YDA       0.543600
     72 C24        -12.5240     6.2870   -21.8530 c3         1 YDA       0.070900
     73 C11        -15.1700    12.1570    -8.2350 c3         1 YDA       0.113000
     74 O2         -11.1040     8.5100   -10.8190 o          1 YDA      -0.558100
@<TRIPOS>BOND
     1     1     5 1   
     2     1    23 1   
     3     1    27 1   
     4     2     8 1   
     5     2    30 2   
     6     3    27 1   
     7     3    36 1   
     8     3    37 1   
     9     3    38 1   
    10     4    27 1   
    11     4    36 1   
    12     4    39 1   
    13     4    40 1   
    14     5     6 1   
    15     5    41 1   
    16     5    42 1   
    17     6     7 1   
    18     6    43 1   
    19     6    44 1   
    20     7    20 1   
    21     7    29 1   
    22     7    45 1   
    23     8    10 2   
    24     8    71 1   
    25     9    46 1   
    26     9    47 1   
    27     9    48 1   
    28     9    73 1   
    29    10    31 1   
    30    10    49 1   
    31    11    20 ar  
    32    11    21 ar  
    33    11    50 1   
    34    12    22 1   
    35    12    26 ar  
    36    12    32 ar  
    37    13    28 ar  
    38    13    32 ar  
    39    13    33 1   
    40    14    24 1   
    41    14    25 2   
    42    14    33 1   
    43    15    26 ar  
    44    15    28 ar  
    45    15    54 1   
    46    16    17 ar  
    47    16    22 ar  
    48    16    55 1   
    49    17    20 ar  
    50    17    23 1   
    51    18    56 1   
    52    18    57 1   
    53    18    58 1   
    54    18    73 1   
    55    19    59 1   
    56    19    60 1   
    57    19    61 1   
    58    19    73 1   
    59    21    22 ar  
    60    21    62 1   
    61    23    63 1   
    62    23    64 1   
    63    24    34 2   
    64    24    65 1   
    65    25    35 1   
    66    25    66 1   
    67    26    67 1   
    68    27    68 1   
    69    29    69 1   
    70    29    71 1   
    71    30    31 1   
    72    31    73 1   
    73    33    70 1   
    74    34    35 1   
    75    35    72 1   
    76    51    72 1   
    77    52    72 1   
    78    53    72 1   
    79    71    74 2   
@<TRIPOS>SUBSTRUCTURE
     1 YDA         1 TEMP              0 ****  ****    0 ROOT
