@<TRIPOS>MOLECULE
YDA
   74    79     1     0     0
SMALL
bcc


@<TRIPOS>ATOM
      1 N1         -11.2580     8.0250   -16.3190 n3         1 YDA      -0.706600
      2 N3         -14.3300     9.1200    -8.9720 nc         1 YDA      -0.298000
      3 C4          -9.7540     8.7740   -18.1990 cy         1 YDA       0.117900
      4 C5         -10.6590     6.9590   -18.5220 cy         1 YDA       0.117900
      5 C6         -10.7490     8.9170   -15.2910 c3         1 YDA       0.172800
      6 C7         -11.8090     9.5620   -14.4110 c3         1 YDA      -0.084400
      7 C8         -12.6100     8.5890   -13.5320 c3         1 YDA       0.160000
      8 C10        -13.8610     9.6090   -10.1400 cc         1 YDA       0.195800
      9 C13        -13.9850    12.6260    -6.9320 c3         1 YDA      -0.105100
     10 C15        -13.9360    10.9810   -10.0820 cd         1 YDA      -0.218600
     11 C17        -15.0420     8.0840   -14.0600 ca         1 YDA      -0.122000
     12 C20        -16.6920     6.0370   -16.7580 cp         1 YDA       0.552800
     13 C21        -17.2940     5.3010   -18.8230 ca         1 YDA       0.914900
     14 C22        -15.8910     5.5750   -20.8290 cc         1 YDA      -0.025700
     15 C26        -18.7780     5.0110   -17.1540 ca         1 YDA       0.481200
     16 C28        -14.3150     6.4870   -16.1810 ca         1 YDA      -0.075000
     17 C1         -13.3280     7.0720   -15.4030 ca         1 YDA      -0.075300
     18 C12        -14.3740    13.6560    -9.1740 c3         1 YDA      -0.105100
     19 C14        -16.2760    12.5690    -7.9720 c3         1 YDA      -0.105100
     20 C16        -13.6930     7.8940   -14.3320 ca         1 YDA      -0.065300
     21 C18        -16.0220     7.4740   -14.8280 ca         1 YDA      -0.098000
     22 C19        -15.6690     6.6720   -15.9070 cp         1 YDA      -0.156500
     23 C2         -11.8830     6.8360   -15.7500 c3         1 YDA       0.207100
     24 C23        -15.6810     5.3570   -22.2040 cc         1 YDA       0.267200
     25 C25        -14.7830     6.2930   -20.4230 cd         1 YDA      -0.149300
     26 C27        -17.9130     5.6100   -16.2500 ca         1 YDA      -0.422600
     27 C3         -10.2060     7.6670   -17.2410 cy         1 YDA       0.108500
     28 N10        -18.4920     4.8490   -18.4320 nb         1 YDA      -0.770000
     29 N2         -13.1320     9.3030   -12.3900 ns         1 YDA      -0.581900
     30 N4         -14.6850    10.1000    -8.2240 nd         1 YDA      -0.204800
     31 N5         -14.4530    11.2320    -8.8750 na         1 YDA       0.107400
     32 N6         -16.3850     5.8770   -18.0440 nb         1 YDA      -0.775000
     33 N7         -17.0140     5.1450   -20.1380 nu         1 YDA      -0.702300
     34 N8         -14.5430     5.8970   -22.6020 nd         1 YDA      -0.510800
     35 N9         -14.0210     6.4590   -21.5270 na         1 YDA       0.112400
     36 O1         -10.1040     7.9890   -19.3450 oq         1 YDA      -0.405600
     37 H2          -8.6920     9.0290   -18.1770 h1         1 YDA       0.057950
     38 H3         -10.3440     9.6940   -18.1270 h1         1 YDA       0.057950
     39 H4         -11.7470     6.8820   -18.6270 h1         1 YDA       0.057950
     40 H5         -10.2140     5.9810   -18.7200 h1         1 YDA       0.057950
     41 H6         -10.0220     8.3970   -14.6430 h1         1 YDA       0.033700
     42 H7         -10.2010     9.7260   -15.7800 h1         1 YDA       0.033700
     43 H8         -11.2810    10.2530   -13.7490 hc         1 YDA       0.053200
     44 H9         -12.4940    10.1590   -15.0190 hc         1 YDA       0.053200
     45 H10        -11.9230     7.8300   -13.1430 h1         1 YDA       0.085700
     46 H11        -14.1930    13.5870    -6.4630 hc         1 YDA       0.054144
     47 H12        -14.2630    11.8410    -6.2300 hc         1 YDA       0.054144
     48 H13        -12.9120    12.5640    -7.1170 hc         1 YDA       0.054144
     49 H14        -13.6610    11.7530   -10.7800 h4         1 YDA       0.182000
     50 H15        -15.3460     8.7250   -13.2430 ha         1 YDA       0.134000
     51 H16        -12.6130     7.5910   -22.5430 h1         1 YDA       0.059700
     52 H17        -12.6330     7.8140   -20.7890 h1         1 YDA       0.059700
     53 H18        -11.9250     6.3470   -21.4820 h1         1 YDA       0.059700
     54 H19        -19.7430     4.6410   -16.8240 h4         1 YDA       0.022100
     55 H20        -14.0250     5.8620   -17.0180 ha         1 YDA       0.144000
     56 H21        -14.6070    14.6040    -8.6910 hc         1 YDA       0.054144
     57 H22        -13.3050    13.6510    -9.3910 hc         1 YDA       0.054144
     58 H23        -14.9270    13.6230   -10.1140 hc         1 YDA       0.054144
     59 H24        -16.5340    13.5220    -7.5110 hc         1 YDA       0.054144
     60 H25        -16.8400    12.4800    -8.9020 hc         1 YDA       0.054144
     61 H26        -16.5880    11.7730    -7.2970 hc         1 YDA       0.054144
     62 H27        -17.0640     7.6550   -14.5960 ha         1 YDA       0.135000
     63 H28        -11.8410     6.0280   -16.4830 h1         1 YDA       0.044700
     64 H29        -11.3230     6.4700   -14.8740 h1         1 YDA       0.044700
     65 H30        -16.3250     4.8390   -22.8990 h4         1 YDA       0.037100
     66 H31        -14.4930     6.6870   -19.4650 h4         1 YDA       0.197000
     67 H32        -18.1740     5.7050   -15.2070 ha         1 YDA       0.155000
     68 H33         -9.3640     7.1600   -16.7450 h1         1 YDA       0.046700
     69 H34        -13.3960    10.2660   -12.5270 hn         1 YDA       0.309500
     70 H35        -17.7340     4.6940   -20.6800 hn         1 YDA       0.461800
     71 C9         -13.3630     8.7110   -11.2030 c          1 YDA       0.610600
     72 C24        -12.7220     7.0830   -21.5880 c3         1 YDA       0.041600
     73 C11        -14.7730    12.5260    -8.2350 c3         1 YDA       0.083700
     74 O2         -13.1750     7.5240   -10.9940 o          1 YDA      -0.558100
@<TRIPOS>BOND
     1     1     5 1   
     2     1    23 1   
     3     1    27 1   
     4     2     8 1   
     5     2    30 2   
     6     3    27 1   
     7     3    36 1   
     8     3    37 1   
     9     3    38 1   
    10     4    27 1   
    11     4    36 1   
    12     4    39 1   
    13     4    40 1   
    14     5     6 1   
    15     5    41 1   
    16     5    42 1   
    17     6     7 1   
    18     6    43 1   
    19     6    44 1   
    20     7    20 1   
    21     7    29 1   
    22     7    45 1   
    23     8    10 2   
    24     8    71 1   
    25     9    46 1   
    26     9    47 1   
    27     9    48 1   
    28     9    73 1   
    29    10    31 1   
    30    10    49 1   
    31    11    20 ar  
    32    11    21 ar  
    33    11    50 1   
    34    12    22 1   
    35    12    26 ar  
    36    12    32 ar  
    37    13    28 ar  
    38    13    32 ar  
    39    13    33 1   
    40    14    24 1   
    41    14    25 2   
    42    14    33 1   
    43    15    26 ar  
    44    15    28 ar  
    45    15    54 1   
    46    16    17 ar  
    47    16    22 ar  
    48    16    55 1   
    49    17    20 ar  
    50    17    23 1   
    51    18    56 1   
    52    18    57 1   
    53    18    58 1   
    54    18    73 1   
    55    19    59 1   
    56    19    60 1   
    57    19    61 1   
    58    19    73 1   
    59    21    22 ar  
    60    21    62 1   
    61    23    63 1   
    62    23    64 1   
    63    24    34 2   
    64    24    65 1   
    65    25    35 1   
    66    25    66 1   
    67    26    67 1   
    68    27    68 1   
    69    29    69 1   
    70    29    71 1   
    71    30    31 1   
    72    31    73 1   
    73    33    70 1   
    74    34    35 1   
    75    35    72 1   
    76    51    72 1   
    77    52    72 1   
    78    53    72 1   
    79    71    74 2   
@<TRIPOS>SUBSTRUCTURE
     1 YDA         1 TEMP              0 ****  ****    0 ROOT
