@<TRIPOS>MOLECULE
YDG
   22    22     1     0     0
SMALL
abcg2


@<TRIPOS>ATOM
      1 C10        -37.5780     0.3990   -21.4440 cc         1 YDG       0.249900
      2 C01        -31.5820     0.4250   -24.1450 c3         1 YDG       0.085800
      3 N02        -32.6910    -0.4900   -23.9120 n          1 YDG      -0.416800
      4 C03        -32.5440    -1.7960   -24.5390 c3         1 YDG       0.085800
      5 C04        -33.6830    -0.1440   -23.0680 c          1 YDG       0.582100
      6 O05        -33.7310     0.9430   -22.4920 o          1 YDG      -0.578100
      7 C06        -34.7900    -1.1870   -22.8420 c3         1 YDG       0.011600
      8 N07        -35.8290    -0.6850   -21.9820 na         1 YDG       0.124800
      9 C08        -35.8900    -0.7640   -20.6340 cd         1 YDG      -0.151000
     10 C09        -37.0200    -0.0750   -20.2420 cc         1 YDG      -0.227000
     11 N11        -36.8510     0.0300   -22.4970 nd         1 YDG      -0.519800
     12 H101       -38.4770     0.9800   -21.5870 h4         1 YDG       0.036100
     13 H012       -31.8380     1.4110   -23.7720 h1         1 YDG       0.044033
     14 H011       -30.6810     0.0690   -23.6370 h1         1 YDG       0.044033
     15 H013       -31.3790     0.4780   -25.2150 h1         1 YDG       0.044033
     16 H032       -33.4250    -2.4130   -24.4020 h1         1 YDG       0.044033
     17 H033       -32.3800    -1.6660   -25.6110 h1         1 YDG       0.044033
     18 H031       -31.6820    -2.3210   -24.1190 h1         1 YDG       0.044033
     19 H061       -35.2450    -1.4730   -23.7890 h1         1 YDG       0.079200
     20 H062       -34.3670    -2.0820   -22.3850 h1         1 YDG       0.079200
     21 H081       -35.1430    -1.2970   -20.0700 h4         1 YDG       0.149000
     22 H091       -37.3890     0.0570   -19.2390 ha         1 YDG       0.144000
@<TRIPOS>BOND
     1     1    10 1   
     2     1    11 2   
     3     1    12 1   
     4     2     3 1   
     5     2    13 1   
     6     2    14 1   
     7     2    15 1   
     8     3     4 1   
     9     3     5 1   
    10     4    16 1   
    11     4    17 1   
    12     4    18 1   
    13     5     6 2   
    14     5     7 1   
    15     7     8 1   
    16     7    19 1   
    17     7    20 1   
    18     8     9 1   
    19     8    11 1   
    20     9    10 2   
    21     9    21 1   
    22    10    22 1   
@<TRIPOS>SUBSTRUCTURE
     1 YDG         1 TEMP              0 ****  ****    0 ROOT
