@<TRIPOS>MOLECULE
YDG
   22    22     1     0     0
SMALL
No Charge or Current Charge


@<TRIPOS>ATOM
      1 C10        -37.7200     0.1350   -21.3050 cc         1 YDG       0.249900
      2 C01        -31.4600     0.4150   -24.1850 c3         1 YDG       0.085800
      3 N02        -32.6110    -0.4890   -23.9570 n          1 YDG      -0.416800
      4 C03        -32.6370    -1.7780   -24.6880 c3         1 YDG       0.085800
      5 C04        -33.6340    -0.1270   -23.0450 c          1 YDG       0.582100
      6 O05        -33.5650     0.9350   -22.4350 o          1 YDG      -0.578100
      7 C06        -34.8100    -1.1040   -22.8560 c3         1 YDG       0.011600
      8 N07        -35.8510    -0.6260   -21.9330 na         1 YDG       0.124800
      9 C08        -35.7780    -0.6120   -20.5350 cd         1 YDG      -0.151000
     10 C09        -36.9830    -0.1160   -20.1410 cc         1 YDG      -0.227000
     11 N11        -37.0740    -0.1660   -22.4120 nd         1 YDG      -0.519800
     12 H101       -38.7250     0.5310   -21.3740 h4         1 YDG       0.036100
     13 H012       -31.8210     1.4110   -24.4710 h1         1 YDG       0.044033
     14 H011       -30.8690     0.4990   -23.2630 h1         1 YDG       0.044033
     15 H013       -30.8140     0.0340   -24.9860 h1         1 YDG       0.044033
     16 H032       -33.5170    -1.8180   -25.3440 h1         1 YDG       0.044033
     17 H033       -31.7370    -1.8940   -25.3060 h1         1 YDG       0.044033
     18 H031       -32.6770    -2.6120   -23.9760 h1         1 YDG       0.044033
     19 H061       -35.2600    -1.2900   -23.8370 h1         1 YDG       0.079200
     20 H062       -34.4110    -2.0490   -22.4750 h1         1 YDG       0.079200
     21 H081       -34.9110    -0.9390   -19.9720 h4         1 YDG       0.149000
     22 H091       -37.3300     0.0580   -19.1270 ha         1 YDG       0.144000
@<TRIPOS>BOND
     1     1    10 1   
     2     1    11 2   
     3     1    12 1   
     4     2     3 1   
     5     2    13 1   
     6     2    14 1   
     7     2    15 1   
     8     3     4 1   
     9     3     5 1   
    10     4    16 1   
    11     4    17 1   
    12     4    18 1   
    13     5     6 2   
    14     5     7 1   
    15     7     8 1   
    16     7    19 1   
    17     7    20 1   
    18     8     9 1   
    19     8    11 1   
    20     9    10 2   
    21     9    21 1   
    22    10    22 1   
@<TRIPOS>SUBSTRUCTURE
     1 YDG         1 TEMP              0 ****  ****    0 ROOT
