@<TRIPOS>MOLECULE
YDI
   44    45     1     0     0
SMALL
bcc


@<TRIPOS>ATOM
      1 S01         -2.2440    -1.0730     0.2790 ss         1 YDI       0.019200
      2 C02         -3.6300    -0.0750     0.0420 cc         1 YDI       0.167500
      3 C03         -3.2830     1.2470    -0.1680 cd         1 YDI      -0.286600
      4 C04         -1.8670     1.4280    -0.1390 cd         1 YDI      -0.098000
      5 C05         -1.1710     0.2850     0.0860 cc         1 YDI      -0.053100
      6 N06         -4.9040    -0.5600     0.0670 ns         1 YDI      -0.466100
      7 C07         -5.2220    -1.8810     0.2770 c          1 YDI       0.791100
      8 N08         -6.5390    -2.1460     0.2790 nt         1 YDI      -0.673000
      9 O09         -4.3490    -2.7190     0.4620 o          1 YDI      -0.630100
     10 C10         -4.2950     2.2880    -0.4060 c          1 YDI       0.724700
     11 O11         -5.5030     2.0300    -0.3890 o          1 YDI      -0.668100
     12 N12         -3.8500     3.5320    -0.6340 nt         1 YDI      -0.660000
     13 C14          8.3630    -1.1140    -0.4790 c3         1 YDI       0.150600
     14 N15          7.1080    -0.3980    -0.5600 n3         1 YDI      -0.702600
     15 C16          6.6840     0.0450     0.7520 c3         1 YDI       0.166800
     16 C17          5.2660     0.5680     0.8010 c3         1 YDI       0.142400
     17 C19          0.2750     0.1000     0.1830 ca         1 YDI      -0.045000
     18 C20          0.8890    -1.1010    -0.1890 ca         1 YDI      -0.083000
     19 C21          2.2570    -1.2640    -0.1060 ca         1 YDI      -0.191000
     20 C22          3.0690    -0.2210     0.3470 ca         1 YDI       0.148100
     21 C2           7.1880     0.6800    -1.5200 c3         1 YDI       0.150600
     22 C23          2.4730     0.9820     0.7220 ca         1 YDI      -0.191000
     23 C24          1.0960     1.1270     0.6450 ca         1 YDI      -0.083000
     24 O1           4.3890    -0.4670     0.3910 os         1 YDI      -0.302900
     25 H06         -5.6120     0.1570    -0.0750 hn         1 YDI       0.370500
     26 H04         -1.3720     2.3760    -0.3020 ha         1 YDI       0.140000
     27 H081        -7.2290    -1.4630     0.0180 hn         1 YDI       0.326500
     28 H082        -6.8400    -3.1030     0.3410 hn         1 YDI       0.326500
     29 H121        -2.8770     3.7650    -0.7130 hn         1 YDI       0.315000
     30 H122        -4.5110     4.2630    -0.8410 hn         1 YDI       0.315000
     31 H141         8.2660    -1.9690     0.1920 h1         1 YDI       0.031033
     32 H142         8.6380    -1.4950    -1.4640 h1         1 YDI       0.031033
     33 H143         9.1980    -0.4960    -0.1150 h1         1 YDI       0.031033
     34 H161         6.7710    -0.7970     1.4440 h1         1 YDI       0.041200
     35 H162         7.3330     0.8440     1.1540 h1         1 YDI       0.041200
     36 H21C         7.5090     0.2880    -2.4860 h1         1 YDI       0.031033
     37 H22C         6.2140     1.1450    -1.6730 h1         1 YDI       0.031033
     38 H23C         7.8960     1.4720    -1.2280 h1         1 YDI       0.031033
     39 H171         5.0460     0.8800     1.8280 h1         1 YDI       0.034200
     40 H172         5.1430     1.4480     0.1610 h1         1 YDI       0.034200
     41 H20          0.2960    -1.9250    -0.5690 ha         1 YDI       0.132000
     42 H24          0.6570     2.0610     0.9720 ha         1 YDI       0.132000
     43 H21          2.7100    -2.2000    -0.4050 ha         1 YDI       0.140000
     44 H23          3.0580     1.8130     1.0920 ha         1 YDI       0.140000
@<TRIPOS>BOND
     1     1     2 1   
     2     1     5 1   
     3     2     3 2   
     4     2     6 1   
     5     3     4 1   
     6     3    10 1   
     7     4     5 2   
     8     4    26 1   
     9     5    17 1   
    10     6     7 1   
    11     6    25 1   
    12     7     8 1   
    13     7     9 2   
    14     8    27 1   
    15     8    28 1   
    16    10    11 2   
    17    10    12 1   
    18    12    29 1   
    19    12    30 1   
    20    13    14 1   
    21    13    31 1   
    22    13    32 1   
    23    13    33 1   
    24    14    15 1   
    25    14    21 1   
    26    15    16 1   
    27    15    34 1   
    28    15    35 1   
    29    16    24 1   
    30    16    39 1   
    31    16    40 1   
    32    17    18 ar  
    33    17    23 ar  
    34    18    19 ar  
    35    18    41 1   
    36    19    20 ar  
    37    19    43 1   
    38    20    22 ar  
    39    20    24 1   
    40    21    36 1   
    41    21    37 1   
    42    21    38 1   
    43    22    23 ar  
    44    22    44 1   
    45    23    42 1   
@<TRIPOS>SUBSTRUCTURE
     1 YDI         1 TEMP              0 ****  ****    0 ROOT
