@<TRIPOS>MOLECULE
YDI
   44    45     1     0     0
SMALL
No Charge or Current Charge


@<TRIPOS>ATOM
      1 S01         -2.3310    -1.3200     0.3420 ss         1 YDI       0.309000
      2 C02         -3.6980    -0.2250     0.0670 cc         1 YDI       0.022600
      3 C03         -3.2810     1.0750    -0.1770 cd         1 YDI      -0.286600
      4 C04         -1.8520     1.1950    -0.1330 cd         1 YDI      -0.080000
      5 C05         -1.2070     0.0160     0.1470 cc         1 YDI      -0.198000
      6 N06         -5.0450    -0.5720     0.0740 ns         1 YDI      -0.399100
      7 C07         -5.6190    -1.7960     0.2930 c          1 YDI       0.657100
      8 N08         -6.9590    -1.7810     0.2270 nt         1 YDI      -0.606000
      9 O09         -5.0130    -2.8230     0.5290 o          1 YDI      -0.630100
     10 C10         -4.2320     2.1920    -0.4540 c          1 YDI       0.657700
     11 O11         -5.4480     2.0820    -0.4910 o          1 YDI      -0.668100
     12 N12         -3.6680     3.3930    -0.6720 nt         1 YDI      -0.593000
     13 C14          8.6300    -0.9340    -0.5180 c3         1 YDI       0.150600
     14 N15          7.2960    -0.2980    -0.5850 n3         1 YDI      -0.702600
     15 C16          6.7960     0.1060     0.7640 c3         1 YDI       0.166800
     16 C17          5.3270     0.6080     0.8400 c3         1 YDI       0.165600
     17 C19          0.2540    -0.0740     0.2150 ca         1 YDI      -0.045000
     18 C20          0.9040    -1.2630    -0.1710 ca         1 YDI      -0.065000
     19 C21          2.3050    -1.3640    -0.1040 ca         1 YDI      -0.173000
     20 C22          3.0770    -0.2850     0.3510 ca         1 YDI       0.148100
     21 C2           7.2500     0.7910    -1.5890 c3         1 YDI       0.150600
     22 C23          2.4340     0.9070     0.7470 ca         1 YDI      -0.173000
     23 C24          1.0320     1.0080     0.6790 ca         1 YDI      -0.065000
     24 O1           4.4460    -0.4430     0.3950 os         1 YDI      -0.326100
     25 H06         -5.6990     0.1820    -0.1090 hn         1 YDI       0.370500
     26 H04         -1.3220     2.1260    -0.3140 ha         1 YDI       0.122000
     27 H081        -7.4610    -0.9280     0.0310 hn         1 YDI       0.326500
     28 H082        -7.4610    -2.6430     0.3760 hn         1 YDI       0.326500
     29 H121        -2.6670     3.4910    -0.6430 hn         1 YDI       0.315000
     30 H122        -4.2610     4.1850    -0.8640 hn         1 YDI       0.315000
     31 H141         8.6180    -1.7920     0.1680 h1         1 YDI       0.031033
     32 H142         8.9370    -1.2990    -1.5070 h1         1 YDI       0.031033
     33 H143         9.3880    -0.2220    -0.1630 h1         1 YDI       0.031033
     34 H161         6.8820    -0.7450     1.4530 h1         1 YDI       0.041200
     35 H162         7.4400     0.8990     1.1690 h1         1 YDI       0.041200
     36 H21C         7.6170     0.4360    -2.5610 h1         1 YDI       0.031033
     37 H22C         6.2240     1.1510    -1.7370 h1         1 YDI       0.031033
     38 H23C         7.8740     1.6400    -1.2770 h1         1 YDI       0.031033
     39 H171         5.1020     0.8780     1.8800 h1         1 YDI       0.034200
     40 H172         5.2080     1.5060     0.2220 h1         1 YDI       0.034200
     41 H20          0.3290    -2.1110    -0.5330 ha         1 YDI       0.114000
     42 H24          0.5550     1.9290     1.0040 ha         1 YDI       0.114000
     43 H21          2.7960    -2.2850    -0.4090 ha         1 YDI       0.122000
     44 H23          2.9990     1.7600     1.1110 ha         1 YDI       0.122000
@<TRIPOS>BOND
     1     1     2 1   
     2     1     5 1   
     3     2     3 2   
     4     2     6 1   
     5     3     4 1   
     6     3    10 1   
     7     4     5 2   
     8     4    26 1   
     9     5    17 1   
    10     6     7 1   
    11     6    25 1   
    12     7     8 1   
    13     7     9 2   
    14     8    27 1   
    15     8    28 1   
    16    10    11 2   
    17    10    12 1   
    18    12    29 1   
    19    12    30 1   
    20    13    14 1   
    21    13    31 1   
    22    13    32 1   
    23    13    33 1   
    24    14    15 1   
    25    14    21 1   
    26    15    16 1   
    27    15    34 1   
    28    15    35 1   
    29    16    24 1   
    30    16    39 1   
    31    16    40 1   
    32    17    18 ar  
    33    17    23 ar  
    34    18    19 ar  
    35    18    41 1   
    36    19    20 ar  
    37    19    43 1   
    38    20    22 ar  
    39    20    24 1   
    40    21    36 1   
    41    21    37 1   
    42    21    38 1   
    43    22    23 ar  
    44    22    44 1   
    45    23    42 1   
@<TRIPOS>SUBSTRUCTURE
     1 YDI         1 TEMP              0 ****  ****    0 ROOT
