@<TRIPOS>MOLECULE
YDJ
   44    46     1     0     0
SMALL
No Charge or Current Charge


@<TRIPOS>ATOM
      1 C1           4.3860    -3.1740    -0.5540 ca         1 YDJ      -0.082000
      2 C2           3.1900    -2.4360    -0.5900 ca         1 YDJ      -0.123000
      3 C3           3.1120    -1.1590     0.0040 ca         1 YDJ       0.013000
      4 C4           4.2560    -0.6360     0.6450 ca         1 YDJ      -0.132000
      5 C5           5.4480    -1.3750     0.6810 ca         1 YDJ       0.174000
      6 C6           5.5190    -2.6410     0.0830 ca         1 YDJ      -0.146000
      7 F1           6.5350    -0.8650     1.3000 f          1 YDJ      -0.176000
      8 C7           1.8550    -0.4070    -0.0390 cc         1 YDJ      -0.116000
      9 C8           1.8270     0.9660    -0.0850 cd         1 YDJ      -0.146000
     10 C9           0.5000     1.4850    -0.1440 cd         1 YDJ       0.160600
     11 C10         -0.4710     0.5110    -0.1530 cc         1 YDJ      -0.393600
     12 S1           0.2420    -1.1020    -0.1000 ss         1 YDJ       0.209000
     13 C11         -1.9240     0.7590    -0.2060 c          1 YDJ       0.663700
     14 O1          -2.4290     1.8720    -0.2470 o          1 YDJ      -0.652100
     15 N1          -2.6810    -0.3850    -0.2060 ns         1 YDJ      -0.488900
     16 C12         -4.1490    -0.4410    -0.2500 c6         1 YDJ       0.073700
     17 C13         -4.6130    -1.8380    -0.7320 c6         1 YDJ      -0.088400
     18 C14         -6.1580    -1.9470    -0.7010 c6         1 YDJ      -0.111400
     19 C15         -6.7120    -1.6070     0.7040 c6         1 YDJ       0.147800
     20 N2          -6.2550    -0.2660     1.1430 n7         1 YDJ      -0.845400
     21 C16         -4.7700    -0.1430     1.1490 c6         1 YDJ       0.133800
     22 N3           0.1700     2.8240    -0.1930 ns         1 YDJ      -0.411100
     23 C17          0.9650     3.9380    -0.1890 c          1 YDJ       0.671100
     24 O2           2.1800     3.9470    -0.1380 o          1 YDJ      -0.633100
     25 N4           0.2720     5.0840    -0.2470 nt         1 YDJ      -0.622000
     26 H1           4.4340    -4.1570    -1.0190 ha         1 YDJ       0.119000
     27 H2           2.3230    -2.8600    -1.0910 ha         1 YDJ       0.118000
     28 H6           6.4470    -3.2070     0.1150 ha         1 YDJ       0.134000
     29 H4           4.2250     0.3340     1.1320 ha         1 YDJ       0.143000
     30 H8           2.7200     1.5780    -0.0880 ha         1 YDJ       0.174000
     31 H3          -0.8220     3.0280    -0.2360 hn         1 YDJ       0.362500
     32 HA          -2.1700    -1.2560    -0.1730 hn         1 YDJ       0.314500
     33 H12         -4.5040     0.3170    -0.9640 h1         1 YDJ       0.075700
     34 H131        -4.2470    -2.0250    -1.7510 hc         1 YDJ       0.046700
     35 H132        -4.1780    -2.6200    -0.0930 hc         1 YDJ       0.046700
     36 H161        -4.3480    -0.8410     1.8880 h1         1 YDJ       0.061200
     37 H162        -4.4880     0.8730     1.4650 h1         1 YDJ       0.061200
     38 H141        -6.5950    -1.2670    -1.4460 hc         1 YDJ       0.047200
     39 H142        -6.4680    -2.9620    -0.9850 hc         1 YDJ       0.047200
     40 H151        -7.8120    -1.6370     0.6860 h1         1 YDJ       0.053700
     41 H152        -6.3730    -2.3660     1.4250 h1         1 YDJ       0.053700
     42 HB          -6.6360     0.4330     0.4930 hn         1 YDJ       0.410000
     43 H41N        -0.7360     5.0820    -0.2890 hn         1 YDJ       0.326000
     44 H42N         0.7790     5.9560    -0.2480 hn         1 YDJ       0.326000
@<TRIPOS>BOND
     1     1     2 ar  
     2     1     6 ar  
     3     1    26 1   
     4     2     3 ar  
     5     2    27 1   
     6     3     4 ar  
     7     3     8 1   
     8     4     5 ar  
     9     4    29 1   
    10     5     6 ar  
    11     5     7 1   
    12     6    28 1   
    13     8     9 2   
    14     8    12 1   
    15     9    10 1   
    16     9    30 1   
    17    10    11 2   
    18    10    22 1   
    19    11    12 1   
    20    11    13 1   
    21    13    14 2   
    22    13    15 1   
    23    15    16 1   
    24    15    32 1   
    25    16    17 1   
    26    16    21 1   
    27    16    33 1   
    28    17    18 1   
    29    17    34 1   
    30    17    35 1   
    31    18    19 1   
    32    18    38 1   
    33    18    39 1   
    34    19    20 1   
    35    19    40 1   
    36    19    41 1   
    37    20    21 1   
    38    20    42 1   
    39    21    36 1   
    40    21    37 1   
    41    22    23 1   
    42    22    31 1   
    43    23    24 2   
    44    23    25 1   
    45    25    43 1   
    46    25    44 1   
@<TRIPOS>SUBSTRUCTURE
     1 YDJ         1 TEMP              0 ****  ****    0 ROOT
