@<TRIPOS>MOLECULE
YDJ
   44    46     1     0     0
SMALL
bcc


@<TRIPOS>ATOM
      1 C1           4.2270    -3.2890    -0.0310 ca         1 YDJ      -0.100000
      2 C2           3.0650    -2.5350    -0.0810 ca         1 YDJ      -0.141000
      3 C3           3.1200    -1.1400    -0.0350 ca         1 YDJ       0.013000
      4 C4           4.3680    -0.5200     0.0650 ca         1 YDJ      -0.150000
      5 C5           5.5050    -1.2980     0.1140 ca         1 YDJ       0.138900
      6 C6           5.4680    -2.6790     0.0680 ca         1 YDJ      -0.164000
      7 F1           6.6940    -0.6850     0.2100 f          1 YDJ      -0.140900
      8 C7           1.9050    -0.3260    -0.0860 cc         1 YDJ       0.028900
      9 C8           1.8100     1.0360    -0.0250 cd         1 YDJ      -0.164000
     10 C9           0.4710     1.5080    -0.1160 cd         1 YDJ       0.160600
     11 C10         -0.4400     0.4710    -0.2330 cc         1 YDJ      -0.248700
     12 S1           0.3610    -1.0580    -0.2570 ss         1 YDJ      -0.080800
     13 C11         -1.8950     0.6170    -0.3300 c          1 YDJ       0.730700
     14 O1          -2.4020     1.7330    -0.4780 o          1 YDJ      -0.652100
     15 N1          -2.6360    -0.5020    -0.2610 ns         1 YDJ      -0.555900
     16 C12         -4.0870    -0.5000    -0.3150 c6         1 YDJ       0.073700
     17 C13         -4.5860    -1.8620    -0.7830 c6         1 YDJ      -0.088400
     18 C14         -6.1110    -1.9080    -0.7650 c6         1 YDJ      -0.111400
     19 C15         -6.6500    -1.4950     0.6010 c6         1 YDJ       0.147800
     20 N2          -6.1490    -0.2110     1.0650 n7         1 YDJ      -0.790200
     21 C16         -4.7010    -0.1480     1.0480 c6         1 YDJ       0.133800
     22 N3           0.0660     2.8210    -0.0920 ns         1 YDJ      -0.478100
     23 C17          0.8550     3.9350     0.0870 c          1 YDJ       0.805100
     24 O2           2.0680     3.8880     0.2290 o          1 YDJ      -0.633100
     25 N4           0.1570     5.0880     0.0930 nt         1 YDJ      -0.689000
     26 H1           4.1640    -4.3680    -0.0680 ha         1 YDJ       0.137000
     27 H2           2.1160    -3.0520    -0.1570 ha         1 YDJ       0.136000
     28 H6           6.3800    -3.2600     0.1100 ha         1 YDJ       0.152000
     29 H4           4.4660     0.5570     0.1020 ha         1 YDJ       0.161000
     30 H8           2.6590     1.6900     0.0740 ha         1 YDJ       0.192000
     31 H3          -0.9370     2.9290    -0.2130 hn         1 YDJ       0.362500
     32 HA          -2.2000    -1.3720     0.0040 hn         1 YDJ       0.314500
     33 H12         -4.3940     0.2570    -1.0430 h1         1 YDJ       0.075700
     34 H131        -4.2050    -2.0770    -1.7840 hc         1 YDJ       0.046700
     35 H132        -4.1910    -2.6410    -0.1200 hc         1 YDJ       0.046700
     36 H161        -4.3090    -0.8460     1.7960 h1         1 YDJ       0.061200
     37 H162        -4.3870     0.8530     1.3490 h1         1 YDJ       0.061200
     38 H141        -6.5090    -1.2360    -1.5320 hc         1 YDJ       0.047200
     39 H142        -6.4570    -2.9130    -1.0190 hc         1 YDJ       0.047200
     40 H151        -7.7410    -1.4570     0.5840 h1         1 YDJ       0.053700
     41 H152        -6.3770    -2.2550     1.3420 h1         1 YDJ       0.053700
     42 HB          -6.5240     0.5270     0.4800 hn         1 YDJ       0.354800
     43 H41N        -0.8390     5.1330    -0.0320 hn         1 YDJ       0.326000
     44 H42N         0.6510     5.9570     0.1920 hn         1 YDJ       0.326000
@<TRIPOS>BOND
     1     1     2 ar  
     2     1     6 ar  
     3     1    26 1   
     4     2     3 ar  
     5     2    27 1   
     6     3     4 ar  
     7     3     8 1   
     8     4     5 ar  
     9     4    29 1   
    10     5     6 ar  
    11     5     7 1   
    12     6    28 1   
    13     8     9 2   
    14     8    12 1   
    15     9    10 1   
    16     9    30 1   
    17    10    11 2   
    18    10    22 1   
    19    11    12 1   
    20    11    13 1   
    21    13    14 2   
    22    13    15 1   
    23    15    16 1   
    24    15    32 1   
    25    16    17 1   
    26    16    21 1   
    27    16    33 1   
    28    17    18 1   
    29    17    34 1   
    30    17    35 1   
    31    18    19 1   
    32    18    38 1   
    33    18    39 1   
    34    19    20 1   
    35    19    40 1   
    36    19    41 1   
    37    20    21 1   
    38    20    42 1   
    39    21    36 1   
    40    21    37 1   
    41    22    23 1   
    42    22    31 1   
    43    23    24 2   
    44    23    25 1   
    45    25    43 1   
    46    25    44 1   
@<TRIPOS>SUBSTRUCTURE
     1 YDJ         1 TEMP              0 ****  ****    0 ROOT
