@<TRIPOS>MOLECULE
YDK
   44    46     1     0     0
SMALL
abcg2


@<TRIPOS>ATOM
      1 S01          1.2310    71.8830     9.9600 ss         1 YDK       0.293000
      2 C02          2.7650    72.6680     9.7880 cc         1 YDK       0.035600
      3 C03          2.9710    73.6280    10.7710 cd         1 YDK      -0.285600
      4 C04          1.8530    73.7190    11.6550 cd         1 YDK      -0.072000
      5 C05          0.8380    72.8550    11.3660 cc         1 YDK      -0.201000
      6 N06          3.6640    72.3690     8.7990 ns         1 YDK      -0.401100
      7 C07          3.4990    71.3880     7.8460 c          1 YDK       0.656100
      8 N08          4.5450    71.2380     7.0020 nt         1 YDK      -0.610000
      9 O09          2.4780    70.7020     7.7930 o          1 YDK      -0.633100
     10 C10          4.2210    74.4050    10.8490 c          1 YDK       0.650700
     11 O11          5.1000    74.3190     9.9680 o          1 YDK      -0.666100
     12 N12          4.3690    75.2180    11.9140 ns         1 YDK      -0.491900
     13 C13          5.5440    76.0420    12.1500 c6         1 YDK       0.110700
     14 C14          6.6300    75.2570    12.8960 c6         1 YDK       0.141800
     15 N15          7.7810    76.1230    13.1340 n7         1 YDK      -0.863400
     16 C16          7.4360    77.2550    13.9960 c6         1 YDK       0.156800
     17 C17          6.3820    78.1180    13.3090 c6         1 YDK      -0.071400
     18 C18          5.1500    77.2880    12.9420 c6         1 YDK      -0.087400
     19 C19         -0.4370    72.6840    12.0590 ca         1 YDK       0.001000
     20 C20         -0.9760    73.7300    12.8240 ca         1 YDK      -0.105000
     21 C21         -2.1750    73.5690    13.5040 ca         1 YDK      -0.106000
     22 C22         -2.8740    72.3670    13.4260 ca         1 YDK      -0.110000
     23 C23         -2.3570    71.3250    12.6620 ca         1 YDK      -0.106000
     24 C24         -1.1520    71.4800    11.9890 ca         1 YDK      -0.105000
     25 H06          4.5050    72.9480     8.8480 hn         1 YDK       0.374500
     26 H04          1.8010    74.3990    12.4930 ha         1 YDK       0.124000
     27 H081         4.4490    70.5930     6.2370 hn         1 YDK       0.329000
     28 H082         5.3400    71.8550     7.0150 hn         1 YDK       0.329000
     29 H12          3.6750    75.1950    12.6430 hn         1 YDK       0.313500
     30 H13          5.9410    76.3330    11.1770 h1         1 YDK       0.092700
     31 H141         6.1910    74.8740    13.8320 h1         1 YDK       0.038200
     32 H142         6.9410    74.4010    12.2970 h1         1 YDK       0.038200
     33 H181         4.4370    77.8820    12.3660 hc         1 YDK       0.042700
     34 H182         4.6420    76.9690    13.8600 hc         1 YDK       0.042700
     35 H15          8.5290    75.5840    13.5560 hn         1 YDK       0.415000
     36 H161         7.0430    76.9180    14.9700 h1         1 YDK       0.030700
     37 H162         8.3390    77.8360    14.1880 h1         1 YDK       0.030700
     38 H171         6.0930    78.9430    13.9640 hc         1 YDK       0.051200
     39 H172         6.8140    78.5540    12.4040 hc         1 YDK       0.051200
     40 H20         -0.4580    74.6790    12.8740 ha         1 YDK       0.113500
     41 H24         -0.7530    70.6510    11.4180 ha         1 YDK       0.113500
     42 H21         -2.5710    74.3900    14.0880 ha         1 YDK       0.113000
     43 H22         -3.8130    72.2450    13.9520 ha         1 YDK       0.114000
     44 H23         -2.8890    70.3850    12.5940 ha         1 YDK       0.113000
@<TRIPOS>BOND
     1     1     2 1   
     2     1     5 1   
     3     2     3 2   
     4     2     6 1   
     5     3     4 1   
     6     3    10 1   
     7     4     5 2   
     8     4    26 1   
     9     5    19 1   
    10     6     7 1   
    11     6    25 1   
    12     7     8 1   
    13     7     9 2   
    14     8    27 1   
    15     8    28 1   
    16    10    11 2   
    17    10    12 1   
    18    12    13 1   
    19    12    29 1   
    20    13    14 1   
    21    13    18 1   
    22    13    30 1   
    23    14    15 1   
    24    14    31 1   
    25    14    32 1   
    26    15    16 1   
    27    15    35 1   
    28    16    17 1   
    29    16    36 1   
    30    16    37 1   
    31    17    18 1   
    32    17    38 1   
    33    17    39 1   
    34    18    33 1   
    35    18    34 1   
    36    19    20 ar  
    37    19    24 ar  
    38    20    21 ar  
    39    20    40 1   
    40    21    22 ar  
    41    21    42 1   
    42    22    23 ar  
    43    22    43 1   
    44    23    24 ar  
    45    23    44 1   
    46    24    41 1   
@<TRIPOS>SUBSTRUCTURE
     1 YDK         1 TEMP              0 ****  ****    0 ROOT
