@<TRIPOS>MOLECULE
YDK
   44    46     1     0     0
SMALL
No Charge or Current Charge


@<TRIPOS>ATOM
      1 S01          1.1580    71.7830     9.8440 ss         1 YDK       0.293000
      2 C02          2.7490    72.5390     9.6560 cc         1 YDK       0.035600
      3 C03          3.0000    73.4770    10.6460 cd         1 YDK      -0.285600
      4 C04          1.8980    73.5960    11.5600 cd         1 YDK      -0.072000
      5 C05          0.8410    72.7740    11.2580 cc         1 YDK      -0.201000
      6 N06          3.6790    72.2600     8.6610 ns         1 YDK      -0.401100
      7 C07          3.5920    71.3720     7.6220 c          1 YDK       0.656100
      8 N08          4.6810    71.3530     6.8390 nt         1 YDK      -0.610000
      9 O09          2.6400    70.6510     7.3930 o          1 YDK      -0.633100
     10 C10          4.2780    74.2490    10.7220 c          1 YDK       0.650700
     11 O11          5.2080    74.1320     9.9330 o          1 YDK      -0.666100
     12 N12          4.3280    75.1260    11.7750 ns         1 YDK      -0.491900
     13 C13          5.4600    76.0040    12.1040 c6         1 YDK       0.110700
     14 C14          6.5880    75.2250    12.8490 c6         1 YDK       0.141800
     15 N15          7.7120    76.1110    13.2570 n7         1 YDK      -0.863400
     16 C16          7.2710    77.2370    14.1140 c6         1 YDK       0.156800
     17 C17          6.1700    78.0740    13.4170 c6         1 YDK      -0.071400
     18 C18          4.9770    77.1820    12.9890 c6         1 YDK      -0.087400
     19 C19         -0.3700    72.7320    12.0810 ca         1 YDK       0.001000
     20 C20         -0.8450    73.8840    12.7440 ca         1 YDK      -0.105000
     21 C21         -2.0130    73.8290    13.5250 ca         1 YDK      -0.106000
     22 C22         -2.7200    72.6230    13.6500 ca         1 YDK      -0.110000
     23 C23         -2.2600    71.4720    12.9900 ca         1 YDK      -0.106000
     24 C24         -1.0930    71.5270    12.2080 ca         1 YDK      -0.105000
     25 H06          4.5470    72.7850     8.7050 hn         1 YDK       0.374500
     26 H04          1.8950    74.2610    12.4170 ha         1 YDK       0.124000
     27 H081         4.6980    70.7250     6.0500 hn         1 YDK       0.329000
     28 H082         5.4700    71.9510     7.0290 hn         1 YDK       0.329000
     29 H12          3.5120    75.1540    12.3690 hn         1 YDK       0.313500
     30 H13          5.8750    76.4100    11.1680 h1         1 YDK       0.092700
     31 H141         6.1650    74.7410    13.7420 h1         1 YDK       0.038200
     32 H142         6.9740    74.4280    12.1960 h1         1 YDK       0.038200
     33 H181         4.2390    77.7850    12.4430 hc         1 YDK       0.042700
     34 H182         4.4700    76.7960    13.8840 hc         1 YDK       0.042700
     35 H15          8.4070    75.5540    13.7720 hn         1 YDK       0.415000
     36 H161         6.8810    76.8410    15.0640 h1         1 YDK       0.030700
     37 H162         8.1310    77.8800    14.3500 h1         1 YDK       0.030700
     38 H171         5.8230    78.8670    14.0920 hc         1 YDK       0.051200
     39 H172         6.5940    78.5760    12.5360 hc         1 YDK       0.051200
     40 H20         -0.3210    74.8310    12.6460 ha         1 YDK       0.113500
     41 H24         -0.7470    70.6260    11.7090 ha         1 YDK       0.113500
     42 H21         -2.3710    74.7240    14.0300 ha         1 YDK       0.113000
     43 H22         -3.6240    72.5800    14.2540 ha         1 YDK       0.114000
     44 H23         -2.8070    70.5360    13.0840 ha         1 YDK       0.113000
@<TRIPOS>BOND
     1     1     2 1   
     2     1     5 1   
     3     2     3 2   
     4     2     6 1   
     5     3     4 1   
     6     3    10 1   
     7     4     5 2   
     8     4    26 1   
     9     5    19 1   
    10     6     7 1   
    11     6    25 1   
    12     7     8 1   
    13     7     9 2   
    14     8    27 1   
    15     8    28 1   
    16    10    11 2   
    17    10    12 1   
    18    12    13 1   
    19    12    29 1   
    20    13    14 1   
    21    13    18 1   
    22    13    30 1   
    23    14    15 1   
    24    14    31 1   
    25    14    32 1   
    26    15    16 1   
    27    15    35 1   
    28    16    17 1   
    29    16    36 1   
    30    16    37 1   
    31    17    18 1   
    32    17    38 1   
    33    17    39 1   
    34    18    33 1   
    35    18    34 1   
    36    19    20 ar  
    37    19    24 ar  
    38    20    21 ar  
    39    20    40 1   
    40    21    22 ar  
    41    21    42 1   
    42    22    23 ar  
    43    22    43 1   
    44    23    24 ar  
    45    23    44 1   
    46    24    41 1   
@<TRIPOS>SUBSTRUCTURE
     1 YDK         1 TEMP              0 ****  ****    0 ROOT
