@<TRIPOS>MOLECULE
YDL
   66    67     1     0     0
SMALL
abcg2


@<TRIPOS>ATOM
      1 C7          32.5760    -2.8130    38.5080 c          1 YDL       0.564000
      2 C2          33.9340     1.7000    40.1900 c2         1 YDL       0.402200
      3 C9          35.7880    -0.7300    41.8670 c          1 YDL       0.604100
      4 C13         36.1640    -3.5030    42.9870 c          1 YDL       0.600100
      5 C18         35.6010    -5.9070    44.7540 c          1 YDL       0.635100
      6 C5          34.9100    -2.2940    38.3690 c5         1 YDL      -0.092400
      7 C12         36.5380    -0.0870    44.1870 c5         1 YDL      -0.078400
      8 C6          34.6230    -3.6430    37.7050 c5         1 YDL       0.100000
      9 C10         37.7830    -2.1170    44.3390 c5         1 YDL       0.118000
     10 C4          33.6670    -2.0240    39.2170 c5         1 YDL      -0.156700
     11 C8          35.8160    -1.1450    43.3360 c5         1 YDL       0.026700
     12 C11         37.4140    -0.8830    45.1580 c5         1 YDL      -0.153700
     13 C16         38.6560    -6.3690    42.1600 c3         1 YDL      -0.091100
     14 C17         38.7870    -3.9580    41.5770 c3         1 YDL      -0.091100
     15 C20         36.9560    -5.3570    40.6380 c3         1 YDL      -0.091100
     16 C19         34.1080    -7.0860    46.1320 c3         1 YDL       0.170900
     17 C3          33.2920    -0.5600    39.3860 c3         1 YDL      -0.070400
     18 C1          34.3650     0.2600    40.1090 c3         1 YDL       0.049400
     19 C14         37.0070    -4.7720    43.1450 c3         1 YDL       0.069700
     20 C21         36.7130    -1.2280    46.4520 c3         1 YDL       0.303000
     21 C15         37.8280    -5.1130    41.8710 c3         1 YDL      -0.044000
     22 N1          33.1770    -3.6680    37.6640 ns         1 YDL      -0.513900
     23 N3          36.6080    -2.3480    43.5150 n          1 YDL      -0.389800
     24 N2          34.6110    -0.2460    41.4440 ns         1 YDL      -0.494900
     25 N4          36.1430    -5.8630    43.5200 ns         1 YDL      -0.483900
     26 O1          31.3740    -2.6960    38.6820 o          1 YDL      -0.560000
     27 O2          36.7920    -0.7980    41.1770 o          1 YDL      -0.602100
     28 O3          35.0950    -3.5460    42.3920 o          1 YDL      -0.612100
     29 O4          35.8670    -5.1330    45.6500 o          1 YDL      -0.542000
     30 O5          34.7450    -6.9240    44.8700 os         1 YDL      -0.452100
     31 F1          36.3920    -0.1280    47.1480 f          1 YDL      -0.110667
     32 F2          35.5760    -1.9130    46.2640 f          1 YDL      -0.110667
     33 F3          37.4860    -1.9780    47.2520 f          1 YDL      -0.110667
     34 H5          35.8310    -2.3130    38.9490 hc         1 YDL       0.064200
     35 H4          35.0150    -1.5200    37.6040 hc         1 YDL       0.064200
     36 H15         37.1970     0.5210    43.5670 hc         1 YDL       0.075200
     37 H14         35.8350     0.5910    44.6680 hc         1 YDL       0.075200
     38 H6          35.0160    -4.4760    38.2950 h1         1 YDL       0.043200
     39 H7          35.0450    -3.7150    36.7030 h1         1 YDL       0.043200
     40 H11         38.0320    -2.9830    44.9480 h1         1 YDL       0.071200
     41 H12         38.6550    -1.8840    43.7250 h1         1 YDL       0.071200
     42 H3          33.7920    -2.4840    40.2050 hc         1 YDL       0.098700
     43 H9          34.7990    -1.3090    43.7040 h1         1 YDL       0.083700
     44 H13         38.3110    -0.3210    45.4270 hc         1 YDL       0.096700
     45 H18         39.2830    -6.2360    43.0440 hc         1 YDL       0.041922
     46 H17         38.0330    -7.2500    42.3170 hc         1 YDL       0.041922
     47 H19         39.3140    -6.5800    41.3160 hc         1 YDL       0.041922
     48 H21         39.4490    -3.7600    42.4230 hc         1 YDL       0.041922
     49 H22         39.4180    -4.2130    40.7230 hc         1 YDL       0.041922
     50 H20         38.2650    -3.0340    41.3270 hc         1 YDL       0.041922
     51 H29         36.2290    -6.1580    40.7810 hc         1 YDL       0.041922
     52 H27         36.4140    -4.4640    40.3290 hc         1 YDL       0.041922
     53 H28         37.5920    -5.6590    39.8040 hc         1 YDL       0.041922
     54 H24         33.4500    -7.9440    46.0250 h1         1 YDL       0.048700
     55 H25         34.8280    -7.2860    46.9250 h1         1 YDL       0.048700
     56 H26         33.5140    -6.2120    46.4010 h1         1 YDL       0.048700
     57 H1          33.1280    -0.1090    38.4040 hc         1 YDL       0.061700
     58 H2          32.3460    -0.4830    39.9310 hc         1 YDL       0.061700
     59 H30         35.3010     0.2200    39.5520 h1         1 YDL       0.106700
     60 H16         37.7390    -4.6460    43.9440 h1         1 YDL       0.077700
     61 H8          32.6600    -4.3730    37.1620 hn         1 YDL       0.325500
     62 H10         33.8240    -0.2800    42.0750 hn         1 YDL       0.317500
     63 H23         35.7540    -6.4540    42.8030 hn         1 YDL       0.336500
     64 H31         33.1370     1.9050    40.9120 h4         1 YDL      -0.040200
     65 H32         34.0230     3.4870    39.6180 hn         1 YDL       0.380400
     66 N5          34.4510     2.5800    39.4480 n2         1 YDL      -0.728100
@<TRIPOS>BOND
     1     1    10 1   
     2     1    22 1   
     3     1    26 2   
     4     2    18 1   
     5     2    64 1   
     6     2    66 2   
     7     3    11 1   
     8     3    24 1   
     9     3    27 2   
    10     4    19 1   
    11     4    23 1   
    12     4    28 2   
    13     5    25 1   
    14     5    29 2   
    15     5    30 1   
    16     6     8 1   
    17     6    10 1   
    18     6    34 1   
    19     6    35 1   
    20     7    11 1   
    21     7    12 1   
    22     7    36 1   
    23     7    37 1   
    24     8    22 1   
    25     8    38 1   
    26     8    39 1   
    27     9    12 1   
    28     9    23 1   
    29     9    40 1   
    30     9    41 1   
    31    10    17 1   
    32    10    42 1   
    33    11    23 1   
    34    11    43 1   
    35    12    20 1   
    36    12    44 1   
    37    13    21 1   
    38    13    45 1   
    39    13    46 1   
    40    13    47 1   
    41    14    21 1   
    42    14    48 1   
    43    14    49 1   
    44    14    50 1   
    45    15    21 1   
    46    15    51 1   
    47    15    52 1   
    48    15    53 1   
    49    16    30 1   
    50    16    54 1   
    51    16    55 1   
    52    16    56 1   
    53    17    18 1   
    54    17    57 1   
    55    17    58 1   
    56    18    24 1   
    57    18    59 1   
    58    19    21 1   
    59    19    25 1   
    60    19    60 1   
    61    20    31 1   
    62    20    32 1   
    63    20    33 1   
    64    22    61 1   
    65    24    62 1   
    66    25    63 1   
    67    65    66 1   
@<TRIPOS>SUBSTRUCTURE
     1 YDL         1 TEMP              0 ****  ****    0 ROOT
