@<TRIPOS>MOLECULE
YDL
   66    67     1     0     0
SMALL
No Charge or Current Charge


@<TRIPOS>ATOM
      1 C7          32.0920    -2.5680    39.0810 c          1 YDL       0.564000
      2 C2          34.3950     1.9990    39.5950 c2         1 YDL       0.402200
      3 C9          35.9910    -0.6320    41.5400 c          1 YDL       0.604100
      4 C13         36.0250    -3.3970    43.0840 c          1 YDL       0.600100
      5 C18         35.9270    -6.8060    44.4330 c          1 YDL       0.635100
      6 C5          34.4270    -2.4970    38.5050 c5         1 YDL      -0.092400
      7 C12         36.9360     0.1430    43.7610 c5         1 YDL      -0.078400
      8 C6          33.9290    -3.9670    38.4960 c5         1 YDL       0.100000
      9 C10         37.4950    -2.0290    44.6560 c5         1 YDL       0.118000
     10 C4          33.3860    -1.8320    39.4500 c5         1 YDL      -0.156700
     11 C8          35.9670    -0.8670    43.0830 c5         1 YDL       0.026700
     12 C11         37.2840    -0.5550    45.1110 c5         1 YDL      -0.153700
     13 C16         38.5990    -6.3890    42.4670 c3         1 YDL      -0.091100
     14 C17         39.0030    -3.9370    42.1630 c3         1 YDL      -0.091100
     15 C20         37.2260    -5.0900    40.7950 c3         1 YDL      -0.091100
     16 C19         34.7350    -8.7410    45.1970 c3         1 YDL       0.170900
     17 C3          33.2860    -0.2820    39.3550 c3         1 YDL      -0.070400
     18 C1          34.5590     0.4950    39.7820 c3         1 YDL       0.049400
     19 C14         36.8310    -4.7210    43.3210 c3         1 YDL       0.069700
     20 C21         36.2490    -0.3820    46.2620 c3         1 YDL       0.303000
     21 C15         37.8980    -5.0270    42.1960 c3         1 YDL      -0.044000
     22 N1          32.4830    -3.7570    38.5260 ns         1 YDL      -0.513900
     23 N3          36.5630    -2.1620    43.5100 n          1 YDL      -0.389800
     24 N2          34.9270     0.1710    41.1760 ns         1 YDL      -0.494900
     25 N4          35.8630    -5.8310    43.4800 ns         1 YDL      -0.483900
     26 O1          30.9460    -2.1530    39.0300 o          1 YDL      -0.560000
     27 O2          36.8000    -1.0800    40.7380 o          1 YDL      -0.602100
     28 O3          34.9450    -3.4140    42.4990 o          1 YDL      -0.612100
     29 O4          36.7880    -6.8960    45.2930 o          1 YDL      -0.542000
     30 O5          34.8610    -7.6400    44.2790 os         1 YDL      -0.452100
     31 F1          36.0430     0.9250    46.5450 f          1 YDL      -0.110667
     32 F2          35.0440    -0.9240    45.9740 f          1 YDL      -0.110667
     33 F3          36.6860    -0.9680    47.3990 f          1 YDL      -0.110667
     34 H5          35.4600    -2.4090    38.8570 hc         1 YDL       0.064200
     35 H4          34.3840    -2.0660    37.4980 hc         1 YDL       0.064200
     36 H15         37.8440     0.2810    43.1590 hc         1 YDL       0.075200
     37 H14         36.4880     1.1360    43.8870 hc         1 YDL       0.075200
     38 H6          34.2710    -4.5130    39.3860 h1         1 YDL       0.043200
     39 H7          34.2640    -4.5110    37.6030 h1         1 YDL       0.043200
     40 H11         37.2760    -2.7430    45.4630 h1         1 YDL       0.071200
     41 H12         38.5310    -2.1880    44.3320 h1         1 YDL       0.071200
     42 H3          33.6240    -2.1280    40.4770 hc         1 YDL       0.098700
     43 H9          34.9380    -0.7730    43.4540 h1         1 YDL       0.083700
     44 H13         38.2220    -0.1520    45.5120 hc         1 YDL       0.096700
     45 H18         39.0450    -6.4080    43.4690 hc         1 YDL       0.041922
     46 H17         37.8960    -7.2270    42.3910 hc         1 YDL       0.041922
     47 H19         39.3990    -6.5720    41.7400 hc         1 YDL       0.041922
     48 H21         39.5160    -3.8680    43.1300 hc         1 YDL       0.041922
     49 H22         39.7600    -4.1710    41.4050 hc         1 YDL       0.041922
     50 H20         38.5940    -2.9510    41.9160 hc         1 YDL       0.041922
     51 H29         36.4330    -5.8460    40.7660 hc         1 YDL       0.041922
     52 H27         36.7860    -4.1250    40.5180 hc         1 YDL       0.041922
     53 H28         37.9600    -5.3490    40.0220 hc         1 YDL       0.041922
     54 H24         33.8400    -9.3320    44.9650 h1         1 YDL       0.048700
     55 H25         35.6070    -9.4040    45.1350 h1         1 YDL       0.048700
     56 H26         34.6450    -8.3800    46.2310 h1         1 YDL       0.048700
     57 H1          33.0340     0.0010    38.3250 hc         1 YDL       0.061700
     58 H2          32.4490     0.0620    39.9750 hc         1 YDL       0.061700
     59 H30         35.3760     0.1770    39.1200 h1         1 YDL       0.106700
     60 H16         37.3660    -4.6120    44.2710 h1         1 YDL       0.077700
     61 H8          31.7810    -4.3680    38.1260 hn         1 YDL       0.325500
     62 H10         34.3240     0.4990    41.9220 hn         1 YDL       0.317500
     63 H23         35.0610    -5.8660    42.8630 hn         1 YDL       0.336500
     64 H31         33.4870     2.4510    39.9850 h4         1 YDL      -0.040200
     65 H32         34.9450     3.7170    39.0190 hn         1 YDL       0.380400
     66 N5          35.2750     2.7400    39.0190 n2         1 YDL      -0.728100
@<TRIPOS>BOND
     1     1    10 1   
     2     1    22 1   
     3     1    26 2   
     4     2    18 1   
     5     2    64 1   
     6     2    66 2   
     7     3    11 1   
     8     3    24 1   
     9     3    27 2   
    10     4    19 1   
    11     4    23 1   
    12     4    28 2   
    13     5    25 1   
    14     5    29 2   
    15     5    30 1   
    16     6     8 1   
    17     6    10 1   
    18     6    34 1   
    19     6    35 1   
    20     7    11 1   
    21     7    12 1   
    22     7    36 1   
    23     7    37 1   
    24     8    22 1   
    25     8    38 1   
    26     8    39 1   
    27     9    12 1   
    28     9    23 1   
    29     9    40 1   
    30     9    41 1   
    31    10    17 1   
    32    10    42 1   
    33    11    23 1   
    34    11    43 1   
    35    12    20 1   
    36    12    44 1   
    37    13    21 1   
    38    13    45 1   
    39    13    46 1   
    40    13    47 1   
    41    14    21 1   
    42    14    48 1   
    43    14    49 1   
    44    14    50 1   
    45    15    21 1   
    46    15    51 1   
    47    15    52 1   
    48    15    53 1   
    49    16    30 1   
    50    16    54 1   
    51    16    55 1   
    52    16    56 1   
    53    17    18 1   
    54    17    57 1   
    55    17    58 1   
    56    18    24 1   
    57    18    59 1   
    58    19    21 1   
    59    19    25 1   
    60    19    60 1   
    61    20    31 1   
    62    20    32 1   
    63    20    33 1   
    64    22    61 1   
    65    24    62 1   
    66    25    63 1   
    67    65    66 1   
@<TRIPOS>SUBSTRUCTURE
     1 YDL         1 TEMP              0 ****  ****    0 ROOT
