@<TRIPOS>MOLECULE
YDM
   34    35     1     0     0
SMALL
abcg2


@<TRIPOS>ATOM
      1 C10         86.8130     5.8720    95.1980 ca         1 YDM       0.359000
      2 C13         88.3470     7.3730    96.3510 c3         1 YDM       0.221100
      3 C15         85.3040     4.3450    94.0440 ca         1 YDM      -0.048000
      4 C17         85.2560     4.2810    91.5720 ca         1 YDM      -0.026000
      5 C01         82.6930     3.9420    89.2210 c3         1 YDM      -0.083100
      6 C02         84.0440     3.2280    89.0640 c3         1 YDM      -0.175400
      7 C05         85.7160     4.7310    90.3460 ca         1 YDM      -0.195600
      8 C06         86.7260     5.7340    90.3270 ca         1 YDM      -0.050000
      9 C07         87.2360     6.2490    91.4830 ca         1 YDM      -0.134000
     10 C08         86.7740     5.8020    92.7540 ca         1 YDM       0.043000
     11 C09         87.2800     6.3180    93.9570 ca         1 YDM      -0.221000
     12 C12         86.8470     5.8450    97.6500 c3         1 YDM       0.221100
     13 C14         85.8030     4.8560    95.2070 ca         1 YDM      -0.173000
     14 C16         85.7620     4.7930    92.7790 ca         1 YDM      -0.109000
     15 N11         87.2900     6.3780    96.3720 nh         1 YDM      -0.836400
     16 O04         85.6500     4.6090    87.9940 o          1 YDM      -0.538100
     17 H1          88.5740     7.6710    97.3700 h1         1 YDM       0.038033
     18 H2          89.2620     6.9840    95.8910 h1         1 YDM       0.038033
     19 H3          88.0420     8.2630    95.7930 h1         1 YDM       0.038033
     20 H4          84.5400     3.5780    94.0790 ha         1 YDM       0.110000
     21 H5          84.4910     3.5190    91.6310 ha         1 YDM       0.110000
     22 H6          81.8780     3.2200    89.1670 hc         1 YDM       0.040367
     23 H7          82.6260     4.4600    90.1790 hc         1 YDM       0.040367
     24 H8          82.5510     4.6770    88.4260 hc         1 YDM       0.040367
     25 H9          84.1640     2.4860    89.8540 hc         1 YDM       0.060700
     26 H10         84.0750     2.7050    88.1070 hc         1 YDM       0.060700
     27 H11         87.0830     6.0830    89.3670 ha         1 YDM       0.131000
     28 H12         88.0030     7.0140    91.4490 ha         1 YDM       0.115000
     29 H13         88.0470     7.0760    93.8990 ha         1 YDM       0.115000
     30 H14         87.3400     6.3940    98.4470 h1         1 YDM       0.038033
     31 H15         85.7680     5.9570    97.7790 h1         1 YDM       0.038033
     32 H16         87.0970     4.7850    97.7600 h1         1 YDM       0.038033
     33 H17         85.4250     4.4840    96.1470 ha         1 YDM       0.113000
     34 C03         85.1920     4.2150    89.0640 c          1 YDM       0.581700
@<TRIPOS>BOND
     1     1    11 ar  
     2     1    13 ar  
     3     1    15 1   
     4     2    15 1   
     5     2    17 1   
     6     2    18 1   
     7     2    19 1   
     8     3    13 ar  
     9     3    14 ar  
    10     3    20 1   
    11     4     7 ar  
    12     4    14 ar  
    13     4    21 1   
    14     5     6 1   
    15     5    22 1   
    16     5    23 1   
    17     5    24 1   
    18     6    25 1   
    19     6    26 1   
    20     6    34 1   
    21     7     8 ar  
    22     7    34 1   
    23     8     9 ar  
    24     8    27 1   
    25     9    10 ar  
    26     9    28 1   
    27    10    11 ar  
    28    10    14 ar  
    29    11    29 1   
    30    12    15 1   
    31    12    30 1   
    32    12    31 1   
    33    12    32 1   
    34    13    33 1   
    35    16    34 2   
@<TRIPOS>SUBSTRUCTURE
     1 YDM         1 TEMP              0 ****  ****    0 ROOT
