@<TRIPOS>MOLECULE
YDM
   34    35     1     0     0
SMALL
No Charge or Current Charge


@<TRIPOS>ATOM
      1 C10         86.8040     5.8800    95.2070 ca         1 YDM       0.359000
      2 C13         88.1500     7.6100    96.4740 c3         1 YDM       0.221100
      3 C15         85.0690     4.6250    94.0210 ca         1 YDM      -0.048000
      4 C17         85.0950     4.4880    91.5850 ca         1 YDM      -0.026000
      5 C01         82.6250     3.7210    89.0530 c3         1 YDM      -0.083100
      6 C02         84.0750     3.1870    89.0030 c3         1 YDM      -0.175400
      7 C05         85.6880     4.8090    90.3400 ca         1 YDM      -0.195600
      8 C06         86.8530     5.6090    90.3320 ca         1 YDM      -0.050000
      9 C07         87.4170     6.0680    91.5340 ca         1 YDM      -0.134000
     10 C08         86.8260     5.7410    92.7650 ca         1 YDM       0.043000
     11 C09         87.3900     6.2010    93.9680 ca         1 YDM      -0.221000
     12 C12         87.2250     5.5940    97.6870 c3         1 YDM       0.221100
     13 C14         85.6380     5.0870    95.2200 ca         1 YDM      -0.173000
     14 C16         85.6620     4.9490    92.7890 ca         1 YDM      -0.109000
     15 N11         87.3770     6.3460    96.4180 nh         1 YDM      -0.836400
     16 O04         85.4340     4.8630    87.9700 o          1 YDM      -0.538100
     17 H1          88.1260     8.0390    97.4850 h1         1 YDM       0.038033
     18 H2          89.1970     7.4350    96.1940 h1         1 YDM       0.038033
     19 H3          87.7220     8.3550    95.7890 h1         1 YDM       0.038033
     20 H4          84.1670     4.0170    94.0550 ha         1 YDM       0.110000
     21 H5          84.1890     3.8910    91.6330 ha         1 YDM       0.110000
     22 H6          81.9110     2.8890    89.0460 hc         1 YDM       0.040367
     23 H7          82.4540     4.3130    89.9590 hc         1 YDM       0.040367
     24 H8          82.4170     4.3560    88.1830 hc         1 YDM       0.040367
     25 H9          84.2200     2.5330    89.8700 hc         1 YDM       0.060700
     26 H10         84.1990     2.6110    88.0790 hc         1 YDM       0.060700
     27 H11         87.3320     5.8760    89.3920 ha         1 YDM       0.131000
     28 H12         88.3160     6.6800    91.5060 ha         1 YDM       0.115000
     29 H13         88.2940     6.8010    93.9330 ha         1 YDM       0.115000
     30 H14         88.0500     5.8190    98.3760 h1         1 YDM       0.038033
     31 H15         86.2790     5.8550    98.1790 h1         1 YDM       0.038033
     32 H16         87.2380     4.5110    97.4980 h1         1 YDM       0.038033
     33 H17         85.1580     4.8340    96.1590 ha         1 YDM       0.113000
     34 C03         85.1030     4.3330    89.0250 c          1 YDM       0.581700
@<TRIPOS>BOND
     1     1    11 ar  
     2     1    13 ar  
     3     1    15 1   
     4     2    15 1   
     5     2    17 1   
     6     2    18 1   
     7     2    19 1   
     8     3    13 ar  
     9     3    14 ar  
    10     3    20 1   
    11     4     7 ar  
    12     4    14 ar  
    13     4    21 1   
    14     5     6 1   
    15     5    22 1   
    16     5    23 1   
    17     5    24 1   
    18     6    25 1   
    19     6    26 1   
    20     6    34 1   
    21     7     8 ar  
    22     7    34 1   
    23     8     9 ar  
    24     8    27 1   
    25     9    10 ar  
    26     9    28 1   
    27    10    11 ar  
    28    10    14 ar  
    29    11    29 1   
    30    12    15 1   
    31    12    30 1   
    32    12    31 1   
    33    12    32 1   
    34    13    33 1   
    35    16    34 2   
@<TRIPOS>SUBSTRUCTURE
     1 YDM         1 TEMP              0 ****  ****    0 ROOT
