@<TRIPOS>MOLECULE
YDO
   44    46     1     0     0
SMALL
No Charge or Current Charge


@<TRIPOS>ATOM
      1 N1          23.5360   -33.3860    15.9020 nv         1 YDO      -1.061900
      2 C4          21.9910   -32.8400    21.7130 c5         1 YDO       0.320300
      3 C5          22.7590   -32.0020    22.8060 c5         1 YDO       0.143300
      4 C6          21.7970   -30.7950    22.9930 c5         1 YDO       0.093300
      5 C7          20.4270   -31.5330    22.8960 c5         1 YDO       0.122300
      6 C8          19.1910   -30.6270    22.6560 c3         1 YDO       0.215800
      7 C10         19.0760   -25.4250    21.8050 c3         1 YDO      -0.095100
      8 C1          23.0090   -33.8620    17.0620 ca         1 YDO       0.450900
      9 C11         23.0140   -31.5590    19.7530 cc         1 YDO       0.412700
     10 C12         22.0290   -35.5950    18.1900 ca         1 YDO       0.183900
     11 C2          22.9310   -33.0850    18.2370 ca         1 YDO      -0.098600
     12 C3          22.3790   -33.6570    19.3550 ca         1 YDO       0.119500
     13 C9          18.4790   -26.5050    20.8890 c3         1 YDO       0.194800
     14 N2          22.4310   -32.6960    20.3230 na         1 YDO      -0.306300
     15 N4          18.4690   -27.7930    21.5930 n7         1 YDO      -0.866300
     16 N5          23.3370   -31.7660    18.4620 nd         1 YDO      -0.557100
     17 N6          21.9170   -34.9230    19.3610 nb         1 YDO      -0.220000
     18 N7          22.5540   -35.1240    17.0320 nb         1 YDO      -0.301000
     19 O1          22.8880   -32.6780    24.0670 oh         1 YDO      -0.705000
     20 O2          22.0210   -30.1580    24.2650 oh         1 YDO      -0.706000
     21 O3          18.1330   -28.9520    19.3700 o          1 YDO      -0.546500
     22 O4          16.7530   -29.6700    21.4290 o          1 YDO      -0.546500
     23 O5          20.6000   -32.4370    21.7780 os         1 YDO      -0.442000
     24 S1          17.9540   -29.1230    20.8070 s6         1 YDO       1.263200
     25 H1          23.2970   -33.8670    15.0390 hn         1 YDO       0.506500
     26 H2          23.6800   -32.3810    15.8390 hn         1 YDO       0.506500
     27 H3          19.3050   -30.6610    20.6370 hn         1 YDO       0.501000
     28 H4          22.0830   -33.9080    21.9480 h2         1 YDO       0.122700
     29 H5          23.7460   -31.6770    22.4470 h1         1 YDO       0.082700
     30 H6          21.9130   -30.0750    22.1710 h1         1 YDO       0.046700
     31 H7          20.2450   -32.1290    23.8010 h1         1 YDO       0.081700
     32 H8          19.1130   -29.9080    23.4830 h1         1 YDO       0.072700
     33 H9          18.3030   -31.2720    22.7060 h1         1 YDO       0.072700
     34 H10         19.0780   -24.4550    21.2940 hc         1 YDO       0.046367
     35 H11         18.4870   -25.3270    22.7240 hc         1 YDO       0.046367
     36 H12         20.1090   -25.6720    22.0760 hc         1 YDO       0.046367
     37 H13         23.1730   -30.6410    20.3070 h5         1 YDO       0.073800
     38 H14         21.6580   -36.6180    18.1770 h5         1 YDO       0.048100
     39 H15         17.4580   -26.2090    20.6110 h1         1 YDO       0.055700
     40 H16         19.0770   -26.5590    19.9680 h1         1 YDO       0.055700
     41 H17         19.4160   -28.1400    21.7310 hn         1 YDO       0.470000
     42 H18         22.7010   -31.9500    24.7150 ho         1 YDO       0.532000
     43 H19         21.6860   -29.2310    24.1980 ho         1 YDO       0.519000
     44 N3          19.2690   -29.9300    21.3480 n7         1 YDO      -0.953300
@<TRIPOS>BOND
     1     1     8 1   
     2     1    25 1   
     3     1    26 1   
     4     2     3 1   
     5     2    14 1   
     6     2    23 1   
     7     2    28 1   
     8     3     4 1   
     9     3    19 1   
    10     3    29 1   
    11     4     5 1   
    12     4    20 1   
    13     4    30 1   
    14     5     6 1   
    15     5    23 1   
    16     5    31 1   
    17     6    32 1   
    18     6    33 1   
    19     6    44 1   
    20     7    13 1   
    21     7    34 1   
    22     7    35 1   
    23     7    36 1   
    24     8    11 ar  
    25     8    18 ar  
    26     9    14 1   
    27     9    16 2   
    28     9    37 1   
    29    10    17 ar  
    30    10    18 ar  
    31    10    38 1   
    32    11    12 ar  
    33    11    16 1   
    34    12    14 1   
    35    12    17 ar  
    36    13    15 1   
    37    13    39 1   
    38    13    40 1   
    39    15    24 1   
    40    15    41 1   
    41    19    42 1   
    42    20    43 1   
    43    21    24 2   
    44    22    24 2   
    45    24    44 1   
    46    27    44 1   
@<TRIPOS>SUBSTRUCTURE
     1 YDO         1 TEMP              0 ****  ****    0 ROOT
