@<TRIPOS>MOLECULE
YDO
   44    46     1     0     0
SMALL
abcg2


@<TRIPOS>ATOM
      1 N1          22.9050   -31.7840    15.9390 nv         1 YDO      -1.061900
      2 C4          21.0720   -32.9600    21.5290 c5         1 YDO       0.320300
      3 C5          21.9990   -32.1960    22.4800 c5         1 YDO       0.143300
      4 C6          21.0620   -31.1030    22.9850 c5         1 YDO       0.093300
      5 C7          19.7450   -31.8690    23.0860 c5         1 YDO       0.122300
      6 C8          18.4760   -31.0440    23.1270 c3         1 YDO       0.215800
      7 C10         21.4210   -27.2140    20.2620 c3         1 YDO      -0.095100
      8 C1          23.0180   -32.3260    17.1540 ca         1 YDO       0.450900
      9 C11         20.3700   -31.7670    19.3850 cc         1 YDO       0.412700
     10 C12         24.2360   -33.5570    18.6700 ca         1 YDO       0.183900
     11 C2          22.0330   -32.1810    18.1490 ca         1 YDO      -0.098600
     12 C3          22.3020   -32.7890    19.3640 ca         1 YDO       0.119500
     13 C9          20.1740   -28.0540    20.4620 c3         1 YDO       0.194800
     14 N2          21.2240   -32.5110    20.1520 na         1 YDO      -0.306300
     15 N4          19.6300   -27.8230    21.7990 n7         1 YDO      -0.866300
     16 N5          20.8190   -31.5480    18.1820 nd         1 YDO      -0.557100
     17 N6          23.3890   -33.4910    19.6820 nb         1 YDO      -0.220000
     18 N7          24.1160   -33.0280    17.4560 nb         1 YDO      -0.301000
     19 O1          22.3670   -33.0870    23.4970 oh         1 YDO      -0.705000
     20 O2          21.5210   -30.5670    24.1900 oh         1 YDO      -0.706000
     21 O3          17.2300   -28.0520    21.1990 o          1 YDO      -0.546500
     22 O4          17.9890   -28.2030    23.6010 o          1 YDO      -0.546500
     23 O5          19.7590   -32.7210    21.9430 os         1 YDO      -0.442000
     24 S1          18.1840   -28.5010    22.1940 s6         1 YDO       1.263200
     25 H1          23.6000   -31.9740    15.2370 hn         1 YDO       0.506500
     26 H2          22.0590   -31.3210    15.6560 hn         1 YDO       0.506500
     27 H3          17.7130   -30.4770    21.2550 hn         1 YDO       0.501000
     28 H4          21.2990   -34.0310    21.5450 h2         1 YDO       0.122700
     29 H5          22.8740   -31.7910    21.9600 h1         1 YDO       0.082700
     30 H6          20.9730   -30.3390    22.2010 h1         1 YDO       0.046700
     31 H7          19.7530   -32.4760    24.0010 h1         1 YDO       0.081700
     32 H8          18.4790   -30.4860    24.0630 h1         1 YDO       0.072700
     33 H9          17.6110   -31.7090    23.1790 h1         1 YDO       0.072700
     34 H10         21.8240   -27.3880    19.2650 hc         1 YDO       0.046367
     35 H11         21.2030   -26.1510    20.3620 hc         1 YDO       0.046367
     36 H12         22.1960   -27.4770    20.9840 hc         1 YDO       0.046367
     37 H13         19.4270   -31.4110    19.7650 h5         1 YDO       0.073800
     38 H14         25.1500   -34.1140    18.8480 h5         1 YDO       0.048100
     39 H15         19.4170   -27.7730    19.7300 h1         1 YDO       0.055700
     40 H16         20.4090   -29.1110    20.2990 h1         1 YDO       0.055700
     41 H17         20.3110   -27.9380    22.5430 hn         1 YDO       0.470000
     42 H18         22.7550   -32.5840    24.2220 ho         1 YDO       0.532000
     43 H19         21.0730   -29.7340    24.3620 ho         1 YDO       0.519000
     44 N3          18.3060   -30.1390    22.0010 n7         1 YDO      -0.953300
@<TRIPOS>BOND
     1     1     8 1   
     2     1    25 1   
     3     1    26 1   
     4     2     3 1   
     5     2    14 1   
     6     2    23 1   
     7     2    28 1   
     8     3     4 1   
     9     3    19 1   
    10     3    29 1   
    11     4     5 1   
    12     4    20 1   
    13     4    30 1   
    14     5     6 1   
    15     5    23 1   
    16     5    31 1   
    17     6    32 1   
    18     6    33 1   
    19     6    44 1   
    20     7    13 1   
    21     7    34 1   
    22     7    35 1   
    23     7    36 1   
    24     8    11 ar  
    25     8    18 ar  
    26     9    14 1   
    27     9    16 2   
    28     9    37 1   
    29    10    17 ar  
    30    10    18 ar  
    31    10    38 1   
    32    11    12 ar  
    33    11    16 1   
    34    12    14 1   
    35    12    17 ar  
    36    13    15 1   
    37    13    39 1   
    38    13    40 1   
    39    15    24 1   
    40    15    41 1   
    41    19    42 1   
    42    20    43 1   
    43    21    24 2   
    44    22    24 2   
    45    24    44 1   
    46    27    44 1   
@<TRIPOS>SUBSTRUCTURE
     1 YDO         1 TEMP              0 ****  ****    0 ROOT
