@<TRIPOS>MOLECULE
YDP
   78    80     1     0     0
SMALL
No Charge or Current Charge


@<TRIPOS>ATOM
      1 N1           5.8980     1.5900    -0.3610 nt         1 YDP      -0.594500
      2 C5           3.0080     3.3830     1.1460 ca         1 YDP      -0.098000
      3 C6           3.8390     2.3020     0.7750 ca         1 YDP      -0.102600
      4 C8           5.2580     2.5640     0.3210 c          1 YDP       0.610200
      5 C20          1.6730     3.1670     1.5270 ca         1 YDP      -0.024250
      6 C24         -2.4190    -0.2100     0.9270 c5         1 YDP       0.219000
      7 C27          1.1510     1.8600     1.5530 ca         1 YDP      -0.253000
      8 C18          1.9840     0.7700     1.2380 ca         1 YDP      -0.024250
      9 C2           3.3140     0.9900     0.8440 ca         1 YDP      -0.098000
     10 S9          -0.5820     1.5710     1.9600 sy         1 YDP       1.168600
     11 O40         -1.3370     2.8290     1.9240 o          1 YDP      -0.541000
     12 N32         -1.1410     0.5780     0.6920 n3         1 YDP      -0.760500
     13 C33         -0.7520     1.0060    -0.6830 c3         1 YDP       0.257000
     14 C34         -1.7300     1.9560    -1.3450 c2         1 YDP      -0.281200
     15 C35         -1.5980     3.2740    -1.5870 c2         1 YDP      -0.059900
     16 C11         -2.6960     4.0840    -2.2500 c3         1 YDP      -0.063900
     17 C25         -3.6950     0.7120     0.7970 c5         1 YDP       0.125800
     18 N22         -4.5560     0.1220    -0.2760 n7         1 YDP      -0.863400
     19 O11         -0.5780     0.7140     3.1500 o          1 YDP      -0.541000
     20 O2           5.8470     3.6070     0.5600 o          1 YDP      -0.616600
     21 N2           3.2620     0.2500    -3.9900 nt         1 YDP      -0.594500
     22 C3           2.1410    -1.8880    -1.1360 ca         1 YDP      -0.098000
     23 O3           4.3050    -0.2660    -2.1070 o          1 YDP      -0.616600
     24 C7           0.9520    -1.3450    -3.1840 ca         1 YDP      -0.098000
     25 C4           2.1100    -1.2160    -2.3770 ca         1 YDP      -0.102600
     26 C9           3.3070    -0.3860    -2.8000 c          1 YDP       0.610200
     27 C12         -2.7020    -2.0460     4.5000 c3         1 YDP      -0.063900
     28 C13         -0.2610    -2.6350     4.6930 c3         1 YDP      -0.063900
     29 O12         -2.5250    -3.8980    -1.9370 o          1 YDP      -0.541000
     30 C19          1.0460    -2.6470    -0.6980 ca         1 YDP      -0.024250
     31 C21         -0.1440    -2.1170    -2.7530 ca         1 YDP      -0.024250
     32 C23         -2.6710    -1.3180    -0.1690 c5         1 YDP       0.219000
     33 C26         -4.2300    -1.3260    -0.2510 c5         1 YDP       0.125800
     34 C28         -0.1010    -2.7660    -1.5040 ca         1 YDP      -0.253000
     35 N36         -2.1540    -2.6670     0.2620 n3         1 YDP      -0.760500
     36 C37         -2.5850    -3.2640     1.5450 c3         1 YDP       0.257000
     37 C38         -1.4650    -3.1760     2.5630 c2         1 YDP      -0.281200
     38 C39         -1.4940    -2.6630     3.8090 c2         1 YDP      -0.059900
     39 O41         -0.9560    -4.8700    -0.1630 o          1 YDP      -0.541000
     40 HN1          5.3860     0.7740    -0.6730 hn         1 YDP       0.324500
     41 HN1A         6.8400     1.7530    -0.6790 hn         1 YDP       0.324500
     42 H5           3.3910     4.4010     1.1140 ha         1 YDP       0.130750
     43 H10         -0.0320     4.6700    -2.1360 hc         1 YDP       0.044617
     44 H10A        -0.6280     4.8690    -0.4820 hc         1 YDP       0.044617
     45 H10B         0.4620     3.5410    -0.8870 hc         1 YDP       0.044617
     46 H20          1.0450     4.0190     1.7810 ha         1 YDP       0.140500
     47 H24         -2.4160    -0.6580     1.9270 h1         1 YDP       0.092200
     48 H18          1.5910    -0.2450     1.2750 ha         1 YDP       0.140500
     49 H2           3.9340     0.1320     0.6020 ha         1 YDP       0.130750
     50 H33          0.2520     1.4410    -0.7020 h1         1 YDP       0.058700
     51 H33A        -0.6470     0.1280    -1.3260 h1         1 YDP       0.058700
     52 H34         -2.6430     1.4540    -1.6610 ha         1 YDP       0.185500
     53 H11         -2.3490     4.5250    -3.1920 hc         1 YDP       0.044617
     54 H11A        -3.5740     3.4690    -2.4800 hc         1 YDP       0.044617
     55 H11B        -3.0310     4.9010    -1.6000 hc         1 YDP       0.044617
     56 H25         -4.2360     0.7030     1.7540 h1         1 YDP       0.054450
     57 H25A        -3.4570     1.7620     0.5860 h1         1 YDP       0.054450
     58 HN22        -5.5540     0.2870    -0.0850 hn         1 YDP       0.427000
     59 HN2          4.0550     0.8020    -4.2780 hn         1 YDP       0.324500
     60 HN2A         2.4520     0.1680    -4.5830 hn         1 YDP       0.324500
     61 H3           3.0190    -1.8220    -0.4980 ha         1 YDP       0.130750
     62 H7           0.8820    -0.8500    -4.1490 ha         1 YDP       0.130750
     63 H12         -2.5140    -0.9930     4.7440 hc         1 YDP       0.044617
     64 H12A        -3.6140    -2.0780     3.8980 hc         1 YDP       0.044617
     65 H12B        -2.9210    -2.5670     5.4390 hc         1 YDP       0.044617
     66 H13         -0.4250    -3.2020     5.6170 hc         1 YDP       0.044617
     67 H13A         0.6110    -3.0710     4.1910 hc         1 YDP       0.044617
     68 H13B         0.0020    -1.6080     4.9710 hc         1 YDP       0.044617
     69 H19          1.0910    -3.1400     0.2710 ha         1 YDP       0.140500
     70 H21         -1.0250    -2.1970    -3.3880 ha         1 YDP       0.140500
     71 H23         -2.2870    -1.0260    -1.1510 h1         1 YDP       0.092200
     72 H26         -4.7030    -1.8000     0.6180 h1         1 YDP       0.054450
     73 H26A        -4.5910    -1.8420    -1.1520 h1         1 YDP       0.054450
     74 H37         -3.4730    -2.7590     1.9320 h1         1 YDP       0.058700
     75 H37A        -2.8780    -4.3150     1.4150 h1         1 YDP       0.058700
     76 H38         -0.5330    -3.5900     2.1840 ha         1 YDP       0.185500
     77 S10         -1.5030    -3.7240    -0.8990 sy         1 YDP       1.168600
     78 C10         -0.3850     4.1270    -1.2520 c3         1 YDP      -0.063900
@<TRIPOS>BOND
     1     1     4 1   
     2     1    40 1   
     3     1    41 1   
     4     2     3 ar  
     5     2     5 ar  
     6     2    42 1   
     7     3     4 1   
     8     3     9 ar  
     9     4    20 2   
    10     5     7 ar  
    11     5    46 1   
    12     6    12 1   
    13     6    17 1   
    14     6    32 1   
    15     6    47 1   
    16     7     8 ar  
    17     7    10 1   
    18     8     9 ar  
    19     8    48 1   
    20     9    49 1   
    21    10    11 2   
    22    10    12 1   
    23    10    19 2   
    24    12    13 1   
    25    13    14 1   
    26    13    50 1   
    27    13    51 1   
    28    14    15 2   
    29    14    52 1   
    30    15    16 1   
    31    15    78 1   
    32    16    53 1   
    33    16    54 1   
    34    16    55 1   
    35    17    18 1   
    36    17    56 1   
    37    17    57 1   
    38    18    33 1   
    39    18    58 1   
    40    21    26 1   
    41    21    59 1   
    42    21    60 1   
    43    22    25 ar  
    44    22    30 ar  
    45    22    61 1   
    46    23    26 2   
    47    24    25 ar  
    48    24    31 ar  
    49    24    62 1   
    50    25    26 1   
    51    27    38 1   
    52    27    63 1   
    53    27    64 1   
    54    27    65 1   
    55    28    38 1   
    56    28    66 1   
    57    28    67 1   
    58    28    68 1   
    59    29    77 2   
    60    30    34 ar  
    61    30    69 1   
    62    31    34 ar  
    63    31    70 1   
    64    32    33 1   
    65    32    35 1   
    66    32    71 1   
    67    33    72 1   
    68    33    73 1   
    69    34    77 1   
    70    35    36 1   
    71    35    77 1   
    72    36    37 1   
    73    36    74 1   
    74    36    75 1   
    75    37    38 2   
    76    37    76 1   
    77    39    77 2   
    78    43    78 1   
    79    44    78 1   
    80    45    78 1   
@<TRIPOS>SUBSTRUCTURE
     1 YDP         1 TEMP              0 ****  ****    0 ROOT
