@<TRIPOS>MOLECULE
YDP
   78    80     1     0     0
SMALL
abcg2


@<TRIPOS>ATOM
      1 N1           6.0040     0.9310     0.1050 nt         1 YDP      -0.594500
      2 C5           3.0580     2.9500     0.6320 ca         1 YDP      -0.098000
      3 C6           3.8420     1.8060     0.7310 ca         1 YDP      -0.102600
      4 C8           5.3310     1.9670     0.6200 c          1 YDP       0.610200
      5 C20          1.6870     2.8810     0.8160 ca         1 YDP      -0.024250
      6 C24         -2.4030    -0.2050     0.8290 c5         1 YDP       0.219000
      7 C27          1.1080     1.6570     1.1160 ca         1 YDP      -0.253000
      8 C18          1.8710     0.5020     1.2150 ca         1 YDP      -0.024250
      9 C2           3.2400     0.5820     1.0160 ca         1 YDP      -0.098000
     10 S9          -0.6150     1.6000     1.5440 sy         1 YDP       1.168600
     11 O40         -1.1230     2.9630     1.4620 o          1 YDP      -0.541000
     12 N32         -1.2660     0.6140     0.3790 n3         1 YDP      -0.760500
     13 C33         -1.2200     1.1750    -0.9800 c3         1 YDP       0.257000
     14 C34         -2.2950     2.1540    -1.3360 c2         1 YDP      -0.281200
     15 C35         -2.1270     3.4250    -1.7030 c2         1 YDP      -0.059900
     16 C11         -3.3130     4.2840    -2.0320 c3         1 YDP      -0.063900
     17 C25         -3.7400     0.5310     1.0650 c5         1 YDP       0.125800
     18 N22         -4.5990     0.0740    -0.0140 n7         1 YDP      -0.863400
     19 O11         -0.7430     0.9070     2.8170 o          1 YDP      -0.541000
     20 O2           5.8630     2.9960     1.0110 o          1 YDP      -0.616600
     21 N2           3.4940     0.6900    -2.7680 nt         1 YDP      -0.594500
     22 C3           2.2490    -2.1870    -0.9520 ca         1 YDP      -0.098000
     23 O3           4.6370    -0.9620    -1.7450 o          1 YDP      -0.616600
     24 C7           1.2000    -1.0800    -2.8100 ca         1 YDP      -0.098000
     25 C4           2.3050    -1.2570    -1.9880 ca         1 YDP      -0.102600
     26 C9           3.5800    -0.4980    -2.1660 c          1 YDP       0.610200
     27 C12         -2.3470    -1.8680     4.2630 c3         1 YDP      -0.063900
     28 C13          0.1460    -2.2130     4.3330 c3         1 YDP      -0.063900
     29 O12         -2.4080    -3.3710    -2.2700 o          1 YDP      -0.541000
     30 C19          1.0840    -2.8800    -0.6950 ca         1 YDP      -0.024250
     31 C21          0.0290    -1.7870    -2.5730 ca         1 YDP      -0.024250
     32 C23         -2.7760    -1.3370    -0.1600 c5         1 YDP       0.219000
     33 C26         -4.3070    -1.3360    -0.1570 c5         1 YDP       0.125800
     34 C28         -0.0280    -2.6560    -1.4960 ca         1 YDP      -0.253000
     35 N36         -2.1800    -2.6290     0.1370 n3         1 YDP      -0.760500
     36 C37         -2.3040    -3.2200     1.4760 c3         1 YDP       0.257000
     37 C38         -1.1220    -2.9600     2.3570 c2         1 YDP      -0.281200
     38 C39         -1.1280    -2.3890     3.5630 c2         1 YDP      -0.059900
     39 O41         -1.2100    -4.8090    -0.5920 o          1 YDP      -0.541000
     40 HN1          5.5500     0.1870    -0.4100 hn         1 YDP       0.324500
     41 HN1A         7.0020     1.0140    -0.0090 hn         1 YDP       0.324500
     42 H5           3.5150     3.9050     0.4150 ha         1 YDP       0.130750
     43 H10         -0.7300     4.6590    -2.7550 hc         1 YDP       0.044617
     44 H10A        -0.7250     4.8880    -1.0180 hc         1 YDP       0.044617
     45 H10B         0.0540     3.4750    -1.7220 hc         1 YDP       0.044617
     46 H20          1.0860     3.7760     0.7410 ha         1 YDP       0.140500
     47 H24         -2.0750    -0.6530     1.7620 h1         1 YDP       0.092200
     48 H18          1.4130    -0.4470     1.4620 ha         1 YDP       0.140500
     49 H2           3.8400    -0.3130     1.1250 ha         1 YDP       0.130750
     50 H33         -0.2220     1.5910    -1.1270 h1         1 YDP       0.058700
     51 H33A        -1.2530     0.3270    -1.6660 h1         1 YDP       0.058700
     52 H34         -3.3050     1.7540    -1.3030 ha         1 YDP       0.185500
     53 H11         -3.2460     4.6770    -3.0500 hc         1 YDP       0.044617
     54 H11A        -4.2520     3.7400    -1.9380 hc         1 YDP       0.044617
     55 H11B        -3.3560     5.1510    -1.3670 hc         1 YDP       0.044617
     56 H25         -4.1210     0.2460     2.0560 h1         1 YDP       0.054450
     57 H25A        -3.6290     1.6150     1.0560 h1         1 YDP       0.054450
     58 HN22        -5.5760     0.2470     0.1760 hn         1 YDP       0.427000
     59 HN2          4.3230     1.2460    -2.9000 hn         1 YDP       0.324500
     60 HN2A         2.6180     1.1200    -3.0060 hn         1 YDP       0.324500
     61 H3           3.1170    -2.3620    -0.3300 ha         1 YDP       0.130750
     62 H7           1.2290    -0.4090    -3.6590 ha         1 YDP       0.130750
     63 H12         -2.2010    -0.8220     4.5380 hc         1 YDP       0.044617
     64 H12A        -3.2630    -1.9330     3.6770 hc         1 YDP       0.044617
     65 H12B        -2.5180    -2.4160     5.1920 hc         1 YDP       0.044617
     66 H13          0.0780    -2.6870     5.3150 hc         1 YDP       0.044617
     67 H13A         1.0050    -2.6340     3.8120 hc         1 YDP       0.044617
     68 H13B         0.3390    -1.1530     4.5070 hc         1 YDP       0.044617
     69 H19          1.0580    -3.5900     0.1190 ha         1 YDP       0.140500
     70 H21         -0.8180    -1.6550    -3.2320 ha         1 YDP       0.140500
     71 H23         -2.4750    -1.0440    -1.1650 h1         1 YDP       0.092200
     72 H26         -4.6930    -1.9500     0.6700 h1         1 YDP       0.054450
     73 H26A        -4.7040    -1.7450    -1.0860 h1         1 YDP       0.054450
     74 H37         -3.2250    -2.8340     1.9120 h1         1 YDP       0.058700
     75 H37A        -2.4710    -4.2910     1.3730 h1         1 YDP       0.058700
     76 H38         -0.1690    -3.3000     1.9640 ha         1 YDP       0.185500
     77 S10         -1.5470    -3.4910    -1.1030 sy         1 YDP       1.168600
     78 C10         -0.8090     4.1320    -1.8020 c3         1 YDP      -0.063900
@<TRIPOS>BOND
     1     1     4 1   
     2     1    40 1   
     3     1    41 1   
     4     2     3 ar  
     5     2     5 ar  
     6     2    42 1   
     7     3     4 1   
     8     3     9 ar  
     9     4    20 2   
    10     5     7 ar  
    11     5    46 1   
    12     6    12 1   
    13     6    17 1   
    14     6    32 1   
    15     6    47 1   
    16     7     8 ar  
    17     7    10 1   
    18     8     9 ar  
    19     8    48 1   
    20     9    49 1   
    21    10    11 2   
    22    10    12 1   
    23    10    19 2   
    24    12    13 1   
    25    13    14 1   
    26    13    50 1   
    27    13    51 1   
    28    14    15 2   
    29    14    52 1   
    30    15    16 1   
    31    15    78 1   
    32    16    53 1   
    33    16    54 1   
    34    16    55 1   
    35    17    18 1   
    36    17    56 1   
    37    17    57 1   
    38    18    33 1   
    39    18    58 1   
    40    21    26 1   
    41    21    59 1   
    42    21    60 1   
    43    22    25 ar  
    44    22    30 ar  
    45    22    61 1   
    46    23    26 2   
    47    24    25 ar  
    48    24    31 ar  
    49    24    62 1   
    50    25    26 1   
    51    27    38 1   
    52    27    63 1   
    53    27    64 1   
    54    27    65 1   
    55    28    38 1   
    56    28    66 1   
    57    28    67 1   
    58    28    68 1   
    59    29    77 2   
    60    30    34 ar  
    61    30    69 1   
    62    31    34 ar  
    63    31    70 1   
    64    32    33 1   
    65    32    35 1   
    66    32    71 1   
    67    33    72 1   
    68    33    73 1   
    69    34    77 1   
    70    35    36 1   
    71    35    77 1   
    72    36    37 1   
    73    36    74 1   
    74    36    75 1   
    75    37    38 2   
    76    37    76 1   
    77    39    77 2   
    78    43    78 1   
    79    44    78 1   
    80    45    78 1   
@<TRIPOS>SUBSTRUCTURE
     1 YDP         1 TEMP              0 ****  ****    0 ROOT
