@<TRIPOS>MOLECULE
YDQ
   31    32     1     0     0
SMALL
No Charge or Current Charge


@<TRIPOS>ATOM
      1 C10         50.3210    69.2450   159.1620 ca         1 YDQ      -0.024000
      2 C13         49.7350    66.5360   159.6230 ca         1 YDQ      -0.131000
      3 C01         46.4410    68.6180   164.4090 c3         1 YDQ       0.221100
      4 C03         47.6110    66.3760   164.3950 c3         1 YDQ       0.221100
      5 C04         48.1480    68.0940   162.6150 ca         1 YDQ       0.363000
      6 C05         48.5850    67.1290   161.6880 ca         1 YDQ      -0.224000
      7 C06         49.3060    67.5070   160.5420 ca         1 YDQ       0.046000
      8 C07         49.5990    68.8650   160.3090 ca         1 YDQ      -0.110000
      9 C08         49.1670    69.8360   161.2290 ca         1 YDQ      -0.047000
     10 C09         48.4460    69.4500   162.3720 ca         1 YDQ      -0.172000
     11 C11         50.7590    68.2730   158.2300 ca         1 YDQ      -0.201600
     12 C12         50.4560    66.9140   158.4770 ca         1 YDQ      -0.048000
     13 C14         51.5380    68.6570   156.9870 c          1 YDQ       0.586700
     14 C16         51.8570    70.1420   156.7370 c3         1 YDQ      -0.028400
     15 N02         47.4210    67.7070   163.7700 nh         1 YDQ      -0.835400
     16 O15         51.9070    67.7970   156.1940 o          1 YDQ      -0.500100
     17 H1          50.5340    70.3000   159.0080 ha         1 YDQ       0.107000
     18 H2          49.5130    65.4860   159.7940 ha         1 YDQ       0.117000
     19 H3          45.6820    68.0490   164.9630 h1         1 YDQ       0.039200
     20 H4          46.9460    69.2970   165.1090 h1         1 YDQ       0.039200
     21 H5          45.9170    69.2160   163.6510 h1         1 YDQ       0.039200
     22 H6          47.3510    66.4040   165.4620 h1         1 YDQ       0.039200
     23 H7          46.9780    65.6250   163.9030 h1         1 YDQ       0.039200
     24 H8          48.6600    66.0590   164.3180 h1         1 YDQ       0.039200
     25 H9          48.3570    66.0800   161.8470 ha         1 YDQ       0.117000
     26 H10         49.3880    70.8880   161.0640 ha         1 YDQ       0.111000
     27 H11         48.1310    70.2140   163.0750 ha         1 YDQ       0.114000
     28 H12         50.7770    66.1400   157.7820 ha         1 YDQ       0.133000
     29 H13         50.9170    70.7010   156.6680 h1         1 YDQ       0.089200
     30 H14         52.4520    70.5240   157.5740 h1         1 YDQ       0.089200
     31 Br1         52.8910    70.5190   155.0590 br         1 YDQ      -0.227000
@<TRIPOS>BOND
     1     1     8 ar  
     2     1    11 ar  
     3     1    17 1   
     4     2     7 ar  
     5     2    12 ar  
     6     2    18 1   
     7     3    15 1   
     8     3    19 1   
     9     3    20 1   
    10     3    21 1   
    11     4    15 1   
    12     4    22 1   
    13     4    23 1   
    14     4    24 1   
    15     5     6 ar  
    16     5    10 ar  
    17     5    15 1   
    18     6     7 ar  
    19     6    25 1   
    20     7     8 ar  
    21     8     9 ar  
    22     9    10 ar  
    23     9    26 1   
    24    10    27 1   
    25    11    12 ar  
    26    11    13 1   
    27    12    28 1   
    28    13    14 1   
    29    13    16 2   
    30    14    29 1   
    31    14    30 1   
    32    14    31 1   
@<TRIPOS>SUBSTRUCTURE
     1 YDQ         1 TEMP              0 ****  ****    0 ROOT
