@<TRIPOS>MOLECULE
YDQ
   31    32     1     0     0
SMALL
abcg2


@<TRIPOS>ATOM
      1 C10         50.2890    69.2360   159.1450 ca         1 YDQ      -0.024000
      2 C13         49.9640    66.5230   159.7310 ca         1 YDQ      -0.131000
      3 C01         46.8430    68.7310   164.6010 c3         1 YDQ       0.221100
      4 C03         47.2290    66.3160   164.0460 c3         1 YDQ       0.221100
      5 C04         48.1260    68.0730   162.6180 ca         1 YDQ       0.363000
      6 C05         48.6800    67.1160   161.7600 ca         1 YDQ      -0.224000
      7 C06         49.3980    67.4870   160.6140 ca         1 YDQ       0.046000
      8 C07         49.5780    68.8700   160.2990 ca         1 YDQ      -0.110000
      9 C08         49.0150    69.8290   161.1790 ca         1 YDQ      -0.047000
     10 C09         48.3180    69.4560   162.2920 ca         1 YDQ      -0.172000
     11 C11         50.8290    68.2810   158.2990 ca         1 YDQ      -0.201600
     12 C12         50.6540    66.9050   158.6180 ca         1 YDQ      -0.048000
     13 C14         51.5760    68.6300   157.0770 c          1 YDQ       0.586700
     14 C16         51.6920    70.1150   156.7570 c3         1 YDQ      -0.028400
     15 N02         47.4240    67.7200   163.7310 nh         1 YDQ      -0.835400
     16 O15         52.0750    67.7800   156.3580 o          1 YDQ      -0.500100
     17 H1          50.4030    70.2930   158.9400 ha         1 YDQ       0.107000
     18 H2          49.8360    65.4710   159.9590 ha         1 YDQ       0.117000
     19 H3          46.3270    68.2350   165.4170 h1         1 YDQ       0.039200
     20 H4          47.6090    69.3850   165.0280 h1         1 YDQ       0.039200
     21 H5          46.1200    69.3550   164.0680 h1         1 YDQ       0.039200
     22 H6          46.6630    66.2340   164.9700 h1         1 YDQ       0.039200
     23 H7          46.6760    65.8000   163.2540 h1         1 YDQ       0.039200
     24 H8          48.1840    65.8010   164.1810 h1         1 YDQ       0.039200
     25 H9          48.5610    66.0620   161.9640 ha         1 YDQ       0.117000
     26 H10         49.1440    70.8810   160.9550 ha         1 YDQ       0.111000
     27 H11         47.9060    70.2200   162.9330 ha         1 YDQ       0.114000
     28 H12         51.0780    66.1650   157.9540 ha         1 YDQ       0.133000
     29 H13         50.7110    70.5730   156.6610 h1         1 YDQ       0.089200
     30 H14         52.2520    70.6350   157.5310 h1         1 YDQ       0.089200
     31 BR1         52.6280    70.4680   155.0770 br         1 YDQ      -0.227000
@<TRIPOS>BOND
     1     1     8 ar  
     2     1    11 ar  
     3     1    17 1   
     4     2     7 ar  
     5     2    12 ar  
     6     2    18 1   
     7     3    15 1   
     8     3    19 1   
     9     3    20 1   
    10     3    21 1   
    11     4    15 1   
    12     4    22 1   
    13     4    23 1   
    14     4    24 1   
    15     5     6 ar  
    16     5    10 ar  
    17     5    15 1   
    18     6     7 ar  
    19     6    25 1   
    20     7     8 ar  
    21     8     9 ar  
    22     9    10 ar  
    23     9    26 1   
    24    10    27 1   
    25    11    12 ar  
    26    11    13 1   
    27    12    28 1   
    28    13    14 1   
    29    13    16 2   
    30    14    29 1   
    31    14    30 1   
    32    14    31 1   
@<TRIPOS>SUBSTRUCTURE
     1 YDQ         1 TEMP              0 ****  ****    0 ROOT
