@<TRIPOS>MOLECULE
YDU
   30    31     1     0     0
SMALL
abcg2


@<TRIPOS>ATOM
      1 C10         -4.1960    -8.5700    -7.9840 c5         1 YDU      -0.070700
      2 C13         -3.8490    -9.7320   -10.1080 c5         1 YDU      -0.077900
      3 C02         -3.3790    -2.7130    -5.1420 cc         1 YDU       0.586300
      4 C05         -4.0240    -4.6180    -5.7120 cd         1 YDU       0.622900
      5 C07         -4.5060    -7.0220    -6.0330 c          1 YDU       0.614100
      6 C09         -5.1990    -7.9410    -7.0070 c3         1 YDU      -0.146400
      7 C11         -3.5250    -7.5870    -8.9510 c5         1 YDU      -0.078900
      8 C12         -2.9110    -8.4960   -10.0250 c5         1 YDU      -0.077900
      9 C14         -4.8410    -9.5900    -8.9320 c5         1 YDU      -0.078900
     10 N03         -2.8480    -3.4890    -4.2390 nd         1 YDU      -0.383300
     11 N06         -4.6060    -5.6720    -6.3490 ns         1 YDU      -0.490400
     12 N15         -4.1260    -3.3730    -6.0880 nc         1 YDU      -0.794000
     13 O04         -3.2840    -4.7950    -4.6200 os         1 YDU      -0.097700
     14 O08         -3.8800    -7.4190    -5.0700 o          1 YDU      -0.519100
     15 H101        -3.4170    -9.0720    -7.4000 hc         1 YDU       0.070700
     16 H131        -4.3770    -9.7720   -11.0610 hc         1 YDU       0.045450
     17 H132        -3.2740   -10.6550   -10.0240 hc         1 YDU       0.045450
     18 H011        -2.5550    -0.9380    -4.3090 hc         1 YDU       0.065033
     19 H013        -2.7270    -0.9280    -6.0790 hc         1 YDU       0.065033
     20 H012        -4.1550    -0.7420    -5.0600 hc         1 YDU       0.065033
     21 H092        -5.6780    -8.7250    -6.4180 hc         1 YDU       0.071200
     22 H091        -5.9720    -7.4120    -7.5690 hc         1 YDU       0.071200
     23 H111        -4.2920    -6.9410    -9.3900 hc         1 YDU       0.044200
     24 H112        -2.7880    -6.9430    -8.4680 hc         1 YDU       0.044200
     25 H121        -2.8070    -7.9880   -10.9840 hc         1 YDU       0.045450
     26 H122        -1.9100    -8.8060    -9.7160 hc         1 YDU       0.045450
     27 H142        -5.7940    -9.1880    -9.2880 hc         1 YDU       0.044200
     28 H141        -5.0530   -10.5380    -8.4360 hc         1 YDU       0.044200
     29 H061        -5.1430    -5.4130    -7.1650 hn         1 YDU       0.349500
     30 C01         -3.1880    -1.2410    -5.1410 c3         1 YDU      -0.126400
@<TRIPOS>BOND
     1     1     6 1   
     2     1     7 1   
     3     1     9 1   
     4     1    15 1   
     5     2     8 1   
     6     2     9 1   
     7     2    16 1   
     8     2    17 1   
     9     3    10 2   
    10     3    12 1   
    11     3    30 1   
    12     4    11 1   
    13     4    12 2   
    14     4    13 1   
    15     5     6 1   
    16     5    11 1   
    17     5    14 2   
    18     6    21 1   
    19     6    22 1   
    20     7     8 1   
    21     7    23 1   
    22     7    24 1   
    23     8    25 1   
    24     8    26 1   
    25     9    27 1   
    26     9    28 1   
    27    10    13 1   
    28    11    29 1   
    29    18    30 1   
    30    19    30 1   
    31    20    30 1   
@<TRIPOS>SUBSTRUCTURE
     1 YDU         1 TEMP              0 ****  ****    0 ROOT
