@<TRIPOS>MOLECULE
YDU
   30    31     1     0     0
SMALL
No Charge or Current Charge


@<TRIPOS>ATOM
      1 C10         -4.2230    -8.5900    -8.0480 c5         1 YDU      -0.070700
      2 C13         -3.8590    -9.8910   -10.0430 c5         1 YDU      -0.077900
      3 C02         -3.3890    -2.6780    -5.0460 cc         1 YDU       0.586300
      4 C05         -3.9410    -4.5690    -5.6600 cd         1 YDU       0.622900
      5 C07         -4.3360    -6.9510    -6.0870 c          1 YDU       0.614100
      6 C09         -5.1330    -7.8740    -7.0170 c3         1 YDU      -0.146400
      7 C11         -3.5130    -7.6510    -9.0560 c5         1 YDU      -0.078900
      8 C12         -2.8900    -8.6640   -10.0590 c5         1 YDU      -0.077900
      9 C14         -4.9860    -9.4940    -9.0480 c5         1 YDU      -0.078900
     10 N03         -2.7010    -3.4340    -4.2100 nd         1 YDU      -0.383300
     11 N06         -4.5090    -5.6120    -6.3180 ns         1 YDU      -0.490400
     12 N15         -4.1690    -3.3170    -5.9600 nc         1 YDU      -0.794000
     13 O04         -3.0710    -4.7340    -4.6210 os         1 YDU      -0.097700
     14 O08         -3.6250    -7.3910    -5.1960 o          1 YDU      -0.519100
     15 H101        -3.4900    -9.1780    -7.4770 hc         1 YDU       0.070700
     16 H131        -4.2600   -10.1150   -11.0390 hc         1 YDU       0.045450
     17 H132        -3.3350   -10.7920    -9.7030 hc         1 YDU       0.045450
     18 H011        -2.6780    -0.8160    -4.2350 hc         1 YDU       0.065033
     19 H013        -2.9780    -0.7950    -5.9830 hc         1 YDU       0.065033
     20 H012        -4.3420    -0.7690    -4.8470 hc         1 YDU       0.065033
     21 H092        -5.6290    -8.6320    -6.3990 hc         1 YDU       0.071200
     22 H091        -5.8960    -7.2950    -7.5520 hc         1 YDU       0.071200
     23 H111        -4.2230    -6.9820    -9.5570 hc         1 YDU       0.044200
     24 H112        -2.7510    -7.0210    -8.5840 hc         1 YDU       0.044200
     25 H121        -2.7890    -8.2300   -11.0600 hc         1 YDU       0.045450
     26 H122        -1.8840    -8.9640    -9.7410 hc         1 YDU       0.045450
     27 H142        -5.7920    -8.9490    -9.5540 hc         1 YDU       0.044200
     28 H141        -5.4380   -10.3670    -8.5650 hc         1 YDU       0.044200
     29 H061        -5.1310    -5.3810    -7.0760 hn         1 YDU       0.349500
     30 C01         -3.3430    -1.1820    -5.0260 c3         1 YDU      -0.126400
@<TRIPOS>BOND
     1     1     6 1   
     2     1     7 1   
     3     1     9 1   
     4     1    15 1   
     5     2     8 1   
     6     2     9 1   
     7     2    16 1   
     8     2    17 1   
     9     3    10 2   
    10     3    12 1   
    11     3    30 1   
    12     4    11 1   
    13     4    12 2   
    14     4    13 1   
    15     5     6 1   
    16     5    11 1   
    17     5    14 2   
    18     6    21 1   
    19     6    22 1   
    20     7     8 1   
    21     7    23 1   
    22     7    24 1   
    23     8    25 1   
    24     8    26 1   
    25     9    27 1   
    26     9    28 1   
    27    10    13 1   
    28    11    29 1   
    29    18    30 1   
    30    19    30 1   
    31    20    30 1   
@<TRIPOS>SUBSTRUCTURE
     1 YDU         1 TEMP              0 ****  ****    0 ROOT
