@<TRIPOS>MOLECULE
YDX
   26    27     1     0     0
SMALL
No Charge or Current Charge


@<TRIPOS>ATOM
      1 C13        -32.7340    -5.7590   -51.3260 cc         1 YDX       0.250900
      2 N02        -32.3640    -8.8430   -42.9430 na         1 YDX       0.120800
      3 C03        -32.9120    -7.5640   -42.9290 cc         1 YDX      -0.150000
      4 C04        -32.7510    -7.1350   -44.2150 cd         1 YDX      -0.222000
      5 C05        -32.1180    -8.1750   -44.9290 cd         1 YDX       0.379900
      6 N06        -31.7730    -8.1540   -46.2550 ns         1 YDX      -0.473400
      7 C07        -31.9400    -7.1620   -47.1990 c          1 YDX       0.589100
      8 O08        -32.4570    -6.0810   -46.9520 o          1 YDX      -0.552100
      9 C09        -31.4100    -7.5370   -48.5890 c3         1 YDX       0.008600
     10 N10        -31.7430    -6.5660   -49.6430 na         1 YDX       0.120800
     11 C11        -31.1000    -5.3460   -49.8840 cd         1 YDX      -0.149000
     12 C12        -31.7470    -4.8330   -50.9650 cc         1 YDX      -0.226000
     13 N14        -32.7620    -6.8260   -50.5540 nd         1 YDX      -0.517800
     14 N15        -31.8730    -9.2230   -44.1780 nc         1 YDX      -0.582800
     15 H131       -33.4390    -5.6820   -52.1440 h4         1 YDX       0.038100
     16 H012       -32.8260   -10.6860   -42.0290 h1         1 YDX       0.056033
     17 H011       -31.2260   -10.0060   -41.6030 h1         1 YDX       0.056033
     18 H013       -32.7140    -9.2950   -40.9110 h1         1 YDX       0.056033
     19 H031       -33.3440    -7.1010   -42.0510 h4         1 YDX       0.154000
     20 H041       -33.0610    -6.1700   -44.5960 ha         1 YDX       0.171000
     21 H061       -31.3260    -8.9890   -46.6080 hn         1 YDX       0.330500
     22 H092       -30.3200    -7.6310   -48.5230 h1         1 YDX       0.081700
     23 H091       -31.8210    -8.5160   -48.8590 h1         1 YDX       0.081700
     24 H111       -30.2770    -4.9700   -49.2860 h4         1 YDX       0.151000
     25 H121       -31.5530    -3.8920   -51.4690 ha         1 YDX       0.145000
     26 C01        -32.2770    -9.7650   -41.8000 c3         1 YDX       0.080900
@<TRIPOS>BOND
     1     1    12 1   
     2     1    13 2   
     3     1    15 1   
     4     2     3 1   
     5     2    14 1   
     6     2    26 1   
     7     3     4 2   
     8     3    19 1   
     9     4     5 1   
    10     4    20 1   
    11     5     6 1   
    12     5    14 2   
    13     6     7 1   
    14     6    21 1   
    15     7     8 2   
    16     7     9 1   
    17     9    10 1   
    18     9    22 1   
    19     9    23 1   
    20    10    11 1   
    21    10    13 1   
    22    11    12 2   
    23    11    24 1   
    24    12    25 1   
    25    16    26 1   
    26    17    26 1   
    27    18    26 1   
@<TRIPOS>SUBSTRUCTURE
     1 YDX         1 TEMP              0 ****  ****    0 ROOT
