@<TRIPOS>MOLECULE
YDX
   26    27     1     0     0
SMALL
abcg2


@<TRIPOS>ATOM
      1 C13        -32.8670    -5.6670   -51.0910 cc         1 YDX       0.250900
      2 N02        -32.3890    -8.8120   -42.9740 na         1 YDX       0.120800
      3 C03        -32.9920    -7.6070   -42.9890 cc         1 YDX      -0.150000
      4 C04        -32.8840    -7.1010   -44.2710 cd         1 YDX      -0.222000
      5 C05        -32.1810    -8.1030   -44.9690 cd         1 YDX       0.379900
      6 N06        -31.7700    -8.1560   -46.3000 ns         1 YDX      -0.473400
      7 C07        -31.9620    -7.2000   -47.2410 c          1 YDX       0.589100
      8 O08        -32.5670    -6.1570   -47.0500 o          1 YDX      -0.552100
      9 C09        -31.3150    -7.5500   -48.5860 c3         1 YDX       0.008600
     10 N10        -31.6570    -6.6080   -49.6170 na         1 YDX       0.120800
     11 C11        -30.9750    -5.4950   -49.9720 cd         1 YDX      -0.149000
     12 C12        -31.7260    -4.8550   -50.9350 cc         1 YDX      -0.226000
     13 N14        -32.8240    -6.7260   -50.2860 nd         1 YDX      -0.517800
     14 N15        -31.8820    -9.1380   -44.1830 nc         1 YDX      -0.582800
     15 H131       -33.7060    -5.5290   -51.7550 h4         1 YDX       0.038100
     16 H012       -32.7110   -10.6750   -42.0830 h1         1 YDX       0.056033
     17 H011       -31.1800    -9.8800   -41.6450 h1         1 YDX       0.056033
     18 H013       -32.7170    -9.2750   -40.9860 h1         1 YDX       0.056033
     19 H031       -33.4480    -7.1970   -42.1030 h4         1 YDX       0.154000
     20 H041       -33.2510    -6.1660   -44.6470 ha         1 YDX       0.171000
     21 H061       -31.2600    -8.9890   -46.5620 hn         1 YDX       0.330500
     22 H092       -30.2310    -7.5580   -48.4630 h1         1 YDX       0.081700
     23 H091       -31.6260    -8.5470   -48.9000 h1         1 YDX       0.081700
     24 H111       -30.0260    -5.2530   -49.5230 h4         1 YDX       0.151000
     25 H121       -31.4820    -3.9440   -51.4540 ha         1 YDX       0.145000
     26 C01        -32.2380    -9.7190   -41.8550 c3         1 YDX       0.080900
@<TRIPOS>BOND
     1     1    12 1   
     2     1    13 2   
     3     1    15 1   
     4     2     3 1   
     5     2    14 1   
     6     2    26 1   
     7     3     4 2   
     8     3    19 1   
     9     4     5 1   
    10     4    20 1   
    11     5     6 1   
    12     5    14 2   
    13     6     7 1   
    14     6    21 1   
    15     7     8 2   
    16     7     9 1   
    17     9    10 1   
    18     9    22 1   
    19     9    23 1   
    20    10    11 1   
    21    10    13 1   
    22    11    12 2   
    23    11    24 1   
    24    12    25 1   
    25    16    26 1   
    26    17    26 1   
    27    18    26 1   
@<TRIPOS>SUBSTRUCTURE
     1 YDX         1 TEMP              0 ****  ****    0 ROOT
