@<TRIPOS>MOLECULE
YE4
   54    57     1     0     0
SMALL
bcc


@<TRIPOS>ATOM
      1 C10         12.9620   149.0300    20.6310 ca         1 YE4       0.027400
      2 C13         11.4300   148.1230    22.2260 ca         1 YE4      -0.109500
      3 C15         11.6900   141.9730    20.5740 cc         1 YE4       0.182000
      4 C20         10.5970   139.2890    16.8030 ca         1 YE4      -0.048000
      5 C21          9.6410   140.2240    16.3840 ca         1 YE4      -0.119300
      6 C22          8.8360   139.9700    15.1380 c3         1 YE4       0.217100
      7 C24         10.4030   140.8940    13.5180 c6         1 YE4       0.128300
      8 C28          9.0350   139.0560    12.8840 c6         1 YE4       0.128300
      9 C02          9.9640   142.8110    19.0850 c          1 YE4       0.611900
     10 C03         10.7860   142.9540    20.2600 cd         1 YE4      -0.377400
     11 C04         10.7580   144.1290    21.1740 c          1 YE4       0.698300
     12 C06          9.7900   146.3120    21.6210 c3         1 YE4       0.157300
     13 C07         10.9230   147.2490    21.2710 ca         1 YE4      -0.094300
     14 C08         11.4580   147.2860    19.9870 ca         1 YE4      -0.109500
     15 C09         12.4750   148.1700    19.6600 ca         1 YE4      -0.121500
     16 C12         12.4450   149.0170    21.9170 ca         1 YE4      -0.121500
     17 C18         11.1440   140.6370    18.7160 ca         1 YE4       0.168600
     18 C19         11.3350   139.4800    17.9470 ca         1 YE4      -0.189000
     19 C25          9.5110   141.8110    12.6910 c6         1 YE4       0.093400
     20 C27          8.1640   140.0050    12.0740 c6         1 YE4       0.093400
     21 C29          9.4600   141.3570    17.1430 ca         1 YE4      -0.045000
     22 C30         10.1960   141.5850    18.3130 ca         1 YE4      -0.195600
     23 N05          9.8320   145.0630    20.9070 ns         1 YE4      -0.568900
     24 N16         11.8810   140.8590    19.8660 na         1 YE4      -0.490800
     25 N23          9.7010   139.7110    14.0000 n3         1 YE4      -0.723600
     26 O14         11.5410   144.2280    22.1130 o          1 YE4      -0.636100
     27 O26          8.9120   141.1130    11.6170 os         1 YE4      -0.398600
     28 CL11        14.2410   150.1320    20.2320 cl         1 YE4      -0.120400
     29 H1          11.0340   148.1070    23.2350 ha         1 YE4       0.136000
     30 H2          12.3100   142.0800    21.4530 h4         1 YE4       0.179000
     31 H3          13.3430   140.2440    21.2110 h1         1 YE4       0.059033
     32 H4          12.3970   138.9260    20.5140 h1         1 YE4       0.059033
     33 H5          13.6370   139.7460    19.5430 h1         1 YE4       0.059033
     34 H6          10.7610   138.3950    16.2140 ha         1 YE4       0.148000
     35 H7           8.1310   140.8000    14.9910 h1         1 YE4       0.042200
     36 H8           8.2200   139.0790    15.2930 h1         1 YE4       0.042200
     37 H9          11.2480   140.5650    12.9040 h1         1 YE4       0.062950
     38 H10          8.4350   138.2200    13.2530 h1         1 YE4       0.062950
     39 H11          9.8050   138.6320    12.2300 h1         1 YE4       0.062950
     40 H12          8.8380   146.7870    21.3790 h1         1 YE4       0.059200
     41 H13          9.7830   146.1340    22.6980 h1         1 YE4       0.059200
     42 H14         11.0860   146.6140    19.2230 ha         1 YE4       0.136000
     43 H15         12.8830   148.1840    18.6580 ha         1 YE4       0.144500
     44 H16         12.8330   149.6860    22.6730 ha         1 YE4       0.144500
     45 H17         12.0580   138.7300    18.2350 ha         1 YE4       0.138000
     46 H18         10.1010   142.6230    12.2620 h1         1 YE4       0.049200
     47 H19          7.3060   140.3410    12.6750 h1         1 YE4       0.049200
     48 H20          7.7670   139.4970    11.1930 h1         1 YE4       0.049200
     49 H21          8.7350   142.1000    16.8360 ha         1 YE4       0.157000
     50 H22          9.2600   144.9290    20.0810 hn         1 YE4       0.355500
     51 H23         10.8200   141.4460    14.3620 h1         1 YE4       0.062950
     52 H24          8.7400   142.2680    13.3280 h1         1 YE4       0.049200
     53 O01          9.1200   143.6370    18.7170 o          1 YE4      -0.601100
     54 C17         12.8700   139.8830    20.3030 c3         1 YE4       0.198100
@<TRIPOS>BOND
     1     1    15 ar  
     2     1    16 ar  
     3     1    28 1   
     4     2    13 ar  
     5     2    16 ar  
     6     2    29 1   
     7     3    10 2   
     8     3    24 1   
     9     3    30 1   
    10     4     5 ar  
    11     4    18 ar  
    12     4    34 1   
    13     5     6 1   
    14     5    21 ar  
    15     6    25 1   
    16     6    35 1   
    17     6    36 1   
    18     7    19 1   
    19     7    25 1   
    20     7    37 1   
    21     7    51 1   
    22     8    20 1   
    23     8    25 1   
    24     8    38 1   
    25     8    39 1   
    26     9    10 1   
    27     9    22 1   
    28     9    53 2   
    29    10    11 1   
    30    11    23 1   
    31    11    26 2   
    32    12    13 1   
    33    12    23 1   
    34    12    40 1   
    35    12    41 1   
    36    13    14 ar  
    37    14    15 ar  
    38    14    42 1   
    39    15    43 1   
    40    16    44 1   
    41    17    18 ar  
    42    17    22 ar  
    43    17    24 1   
    44    18    45 1   
    45    19    27 1   
    46    19    46 1   
    47    19    52 1   
    48    20    27 1   
    49    20    47 1   
    50    20    48 1   
    51    21    22 ar  
    52    21    49 1   
    53    23    50 1   
    54    24    54 1   
    55    31    54 1   
    56    32    54 1   
    57    33    54 1   
@<TRIPOS>SUBSTRUCTURE
     1 YE4         1 TEMP              0 ****  ****    0 ROOT
