@<TRIPOS>MOLECULE
YE4
   54    57     1     0     0
SMALL
No Charge or Current Charge


@<TRIPOS>ATOM
      1 C10         12.7060   149.2770    20.1990 ca         1 YE4       0.119000
      2 C13         12.0390   147.4870    21.7060 ca         1 YE4      -0.091500
      3 C15         11.5670   141.7600    20.9120 cc         1 YE4       0.132000
      4 C20         10.3780   138.9960    17.0190 ca         1 YE4      -0.030000
      5 C21          9.6230   140.0370    16.4610 ca         1 YE4      -0.119300
      6 C22          8.8620   139.8220    15.1580 c3         1 YE4       0.217100
      7 C24         10.6790   140.7560    13.7080 c6         1 YE4       0.128300
      8 C28          9.0130   139.2400    12.7430 c6         1 YE4       0.128300
      9 C02         10.1990   142.7550    19.0520 c          1 YE4       0.611900
     10 C03         10.8260   142.8080    20.3860 cd         1 YE4      -0.377400
     11 C04         10.7160   144.0010    21.2700 c          1 YE4       0.631300
     12 C06          9.7870   146.3310    21.4760 c3         1 YE4       0.157300
     13 C07         10.8090   147.3680    21.0300 ca         1 YE4      -0.094300
     14 C08         10.5350   148.2090    19.9330 ca         1 YE4      -0.091500
     15 C09         11.4830   149.1630    19.5190 ca         1 YE4      -0.103500
     16 C12         12.9860   148.4410    21.2910 ca         1 YE4      -0.103500
     17 C18         11.0550   140.4460    18.8860 ca         1 YE4       0.307000
     18 C19         11.0820   139.1970    18.2170 ca         1 YE4      -0.171000
     19 C25          9.9250   141.9650    13.0730 c6         1 YE4       0.116600
     20 C27          8.2840   140.4690    12.1150 c6         1 YE4       0.116600
     21 C29          9.5750   141.2740    17.1240 ca         1 YE4      -0.027000
     22 C30         10.2840   141.4700    18.3310 ca         1 YE4      -0.195600
     23 N05          9.9890   145.0570    20.7890 ns         1 YE4      -0.501900
     24 N16         11.7920   140.6520    20.0730 na         1 YE4      -0.629200
     25 N23          9.7580   139.6050    13.9920 n3         1 YE4      -0.723600
     26 O14         11.2370   144.0500    22.3750 o          1 YE4      -0.636100
     27 O26          9.2260   141.5430    11.8760 os         1 YE4      -0.445000
     28 Cl11        13.8910   150.4690    19.6790 cl         1 YE4      -0.212000
     29 H1          12.2630   146.8390    22.5510 ha         1 YE4       0.118000
     30 H2          12.0560   141.7710    21.8870 h4         1 YE4       0.229000
     31 H3          13.4600   140.0330    21.2550 h1         1 YE4       0.059033
     32 H4          12.3480   138.7220    20.7900 h1         1 YE4       0.059033
     33 H5          13.4720   139.4290    19.5840 h1         1 YE4       0.059033
     34 H6          10.4220   138.0300    16.5190 ha         1 YE4       0.130000
     35 H7           8.1970   140.6790    14.9840 h1         1 YE4       0.042200
     36 H8           8.2130   138.9450    15.2910 h1         1 YE4       0.042200
     37 H9          11.4650   140.4380    13.0070 h1         1 YE4       0.062950
     38 H10          8.2790   138.4450    12.9430 h1         1 YE4       0.062950
     39 H11          9.7130   138.8380    11.9950 h1         1 YE4       0.062950
     40 H12          8.7750   146.6920    21.2520 h1         1 YE4       0.059200
     41 H13          9.8510   146.1850    22.5630 h1         1 YE4       0.059200
     42 H14          9.5900   148.1240    19.4000 ha         1 YE4       0.118000
     43 H15         11.2690   149.8100    18.6720 ha         1 YE4       0.126500
     44 H16         13.9340   148.5310    21.8140 ha         1 YE4       0.126500
     45 H17         11.6450   138.3570    18.6080 ha         1 YE4       0.120000
     46 H18         10.6430   142.7540    12.8090 h1         1 YE4       0.049200
     47 H19          7.4870   140.8260    12.7840 h1         1 YE4       0.049200
     48 H20          7.8210   140.1800    11.1610 h1         1 YE4       0.049200
     49 H21          8.9800   142.0820    16.7020 ha         1 YE4       0.139000
     50 H22          9.6060   144.9380    19.8560 hn         1 YE4       0.355500
     51 H23         11.1970   141.0890    14.6200 h1         1 YE4       0.062950
     52 H24          9.2040   142.3870    13.7880 h1         1 YE4       0.049200
     53 O01          9.6050   143.6990    18.5420 o          1 YE4      -0.601100
     54 C17         12.8270   139.6480    20.4450 c3         1 YE4       0.198100
@<TRIPOS>BOND
     1     1    15 ar  
     2     1    16 ar  
     3     1    28 1   
     4     2    13 ar  
     5     2    16 ar  
     6     2    29 1   
     7     3    10 2   
     8     3    24 1   
     9     3    30 1   
    10     4     5 ar  
    11     4    18 ar  
    12     4    34 1   
    13     5     6 1   
    14     5    21 ar  
    15     6    25 1   
    16     6    35 1   
    17     6    36 1   
    18     7    19 1   
    19     7    25 1   
    20     7    37 1   
    21     7    51 1   
    22     8    20 1   
    23     8    25 1   
    24     8    38 1   
    25     8    39 1   
    26     9    10 1   
    27     9    22 1   
    28     9    53 2   
    29    10    11 1   
    30    11    23 1   
    31    11    26 2   
    32    12    13 1   
    33    12    23 1   
    34    12    40 1   
    35    12    41 1   
    36    13    14 ar  
    37    14    15 ar  
    38    14    42 1   
    39    15    43 1   
    40    16    44 1   
    41    17    18 ar  
    42    17    22 ar  
    43    17    24 1   
    44    18    45 1   
    45    19    27 1   
    46    19    46 1   
    47    19    52 1   
    48    20    27 1   
    49    20    47 1   
    50    20    48 1   
    51    21    22 ar  
    52    21    49 1   
    53    23    50 1   
    54    24    54 1   
    55    31    54 1   
    56    32    54 1   
    57    33    54 1   
@<TRIPOS>SUBSTRUCTURE
     1 YE4         1 TEMP              0 ****  ****    0 ROOT
