@<TRIPOS>MOLECULE
YE5
   39    41     1     0     0
SMALL
abcg2


@<TRIPOS>ATOM
      1 CAA         -2.1210     4.6600     0.8870 c3         1 YE5      -0.095100
      2 CAB         -2.1650    -4.0770    -0.6400 c3         1 YE5      -0.194100
      3 CAD          1.5950     2.1040    -1.8110 ca         1 YE5      -0.124000
      4 CAE          0.3130     1.7150    -1.4550 ca         1 YE5      -0.066000
      5 CAF          2.7010     1.4570    -1.2830 ca         1 YE5      -0.075000
      6 CAG         -3.7620    -0.7590     0.4980 ca         1 YE5      -0.009000
      7 CAH         -3.4710     0.5810     0.6540 ca         1 YE5      -0.225000
      8 CAI          1.2340     0.0140    -0.0360 ca         1 YE5      -0.066000
      9 CAJ         -1.5550    -1.1530    -0.3290 ca         1 YE5      -0.021000
     10 CAK         -2.7900     3.3080     0.9090 c3         1 YE5       0.164600
     11 CAR         -2.8120    -1.6560     0.0080 ca         1 YE5      -0.219600
     12 CAS          0.1200     0.6610    -0.5610 cp         1 YE5      -0.029000
     13 CAT          2.5230     0.4040    -0.3900 ca         1 YE5      -0.133500
     14 CAU         -2.2080     1.0700     0.3110 ca         1 YE5       0.192100
     15 CAV         -1.2350     0.1900    -0.1960 cp         1 YE5      -0.097000
     16 CAW          3.6740    -0.2890     0.1820 cc         1 YE5       0.561500
     17 NAL          5.5710    -0.8540     0.6600 na         1 YE5       0.111600
     18 NAM          4.9340     0.0280    -0.0590 nd         1 YE5      -0.521800
     19 NAN          3.5920    -1.3350     1.0250 nc         1 YE5      -0.383000
     20 NAO          4.8050    -1.6730     1.3120 nd         1 YE5      -0.171800
     21 OAC         -4.3160    -3.4530     0.1030 o          1 YE5      -0.539100
     22 OAP         -1.8430     2.3450     0.4520 os         1 YE5      -0.342100
     23 H1          -1.8030     4.9310    -0.1190 hc         1 YE5       0.049367
     24 H2          -2.8290     5.4140     1.2300 hc         1 YE5       0.049367
     25 H3          -1.2540     4.6880     1.5470 hc         1 YE5       0.049367
     26 H4          -1.1320    -3.7590    -0.5350 hc         1 YE5       0.061033
     27 H5          -2.2930    -5.0210    -0.1120 hc         1 YE5       0.061033
     28 H6          -2.3470    -4.2700    -1.7000 hc         1 YE5       0.061033
     29 H7           1.7330     2.9170    -2.5100 ha         1 YE5       0.116000
     30 H8          -0.5370     2.2230    -1.8880 ha         1 YE5       0.120000
     31 H9           3.6970     1.7720    -1.5660 ha         1 YE5       0.127000
     32 H10         -4.7480    -1.1120     0.7700 ha         1 YE5       0.134000
     33 H11         -4.2330     1.2360     1.0530 ha         1 YE5       0.122000
     34 H12          1.0950    -0.7970     0.6690 ha         1 YE5       0.135000
     35 H13         -0.7900    -1.8060    -0.7290 ha         1 YE5       0.121000
     36 H14         -3.1190     3.0560     1.9220 h1         1 YE5       0.037700
     37 H15         -3.6710     3.3030     0.2600 h1         1 YE5       0.037700
     38 H16          6.5800    -0.9000     0.7100 hn         1 YE5       0.406000
     39 CAQ         -3.1840    -3.0830    -0.1470 c          1 YE5       0.592700
@<TRIPOS>BOND
     1     1    10 1   
     2     1    23 1   
     3     1    24 1   
     4     1    25 1   
     5     2    26 1   
     6     2    27 1   
     7     2    28 1   
     8     2    39 1   
     9     3     4 ar  
    10     3     5 ar  
    11     3    29 1   
    12     4    12 ar  
    13     4    30 1   
    14     5    13 ar  
    15     5    31 1   
    16     6     7 ar  
    17     6    11 ar  
    18     6    32 1   
    19     7    14 ar  
    20     7    33 1   
    21     8    12 ar  
    22     8    13 ar  
    23     8    34 1   
    24     9    11 ar  
    25     9    15 ar  
    26     9    35 1   
    27    10    22 1   
    28    10    36 1   
    29    10    37 1   
    30    11    39 1   
    31    12    15 1   
    32    13    16 1   
    33    14    15 ar  
    34    14    22 1   
    35    16    18 2   
    36    16    19 1   
    37    17    18 1   
    38    17    20 1   
    39    17    38 1   
    40    19    20 2   
    41    21    39 2   
@<TRIPOS>SUBSTRUCTURE
     1 YE5         1 TEMP              0 ****  ****    0 ROOT
