@<TRIPOS>MOLECULE
YE5
   39    41     1     0     0
SMALL
No Charge or Current Charge


@<TRIPOS>ATOM
      1 CAA         -2.1340     4.7400     0.8810 c3         1 YE5      -0.095100
      2 CAB         -2.1360    -4.1590    -0.5630 c3         1 YE5      -0.194100
      3 CAD          1.6020     2.1750    -1.7660 ca         1 YE5      -0.124000
      4 CAE          0.3100     1.7520    -1.4190 ca         1 YE5      -0.066000
      5 CAF          2.7250     1.5020    -1.2600 ca         1 YE5      -0.075000
      6 CAG         -3.8390    -0.7870     0.4840 ca         1 YE5      -0.009000
      7 CAH         -3.5470     0.5800     0.6070 ca         1 YE5      -0.225000
      8 CAI          1.2620    -0.0210    -0.0590 ca         1 YE5      -0.066000
      9 CAJ         -1.5740    -1.1980    -0.2960 ca         1 YE5      -0.021000
     10 CAK         -2.8630     3.3870     0.8730 c3         1 YE5       0.164600
     11 CAR         -2.8570    -1.6950     0.0340 ca         1 YE5      -0.219600
     12 CAS          0.1160     0.6490    -0.5540 cp         1 YE5      -0.029000
     13 CAT          2.5730     0.3920    -0.3990 ca         1 YE5      -0.133500
     14 CAU         -2.2660     1.0650     0.2770 ca         1 YE5       0.192100
     15 CAV         -1.2570     0.1790    -0.1870 cp         1 YE5      -0.097000
     16 CAW          3.7570    -0.3150     0.1300 cc         1 YE5       0.561500
     17 NAL          5.6640    -0.9250     0.5760 na         1 YE5       0.111600
     18 NAM          4.9950     0.0290    -0.1490 nd         1 YE5      -0.521800
     19 NAN          3.6250    -1.3920     0.9590 nc         1 YE5      -0.383000
     20 NAO          4.8330    -1.7860     1.2470 nd         1 YE5      -0.171800
     21 OAC         -4.3200    -3.5750     0.1930 o          1 YE5      -0.539100
     22 OAP         -1.9280     2.3980     0.4140 os         1 YE5      -0.342100
     23 H1          -1.7860     4.9970    -0.1270 hc         1 YE5       0.049367
     24 H2          -2.8090     5.5320     1.2250 hc         1 YE5       0.049367
     25 H3          -1.2690     4.7080     1.5540 hc         1 YE5       0.049367
     26 H4          -1.2530    -4.0740     0.0790 hc         1 YE5       0.061033
     27 H5          -2.5080    -5.1900    -0.5990 hc         1 YE5       0.061033
     28 H6          -1.7590    -3.8380    -1.5410 hc         1 YE5       0.061033
     29 H7           1.7320     3.0250    -2.4320 ha         1 YE5       0.116000
     30 H8          -0.5500     2.2750    -1.8290 ha         1 YE5       0.120000
     31 H9           3.7170     1.8500    -1.5450 ha         1 YE5       0.127000
     32 H10         -4.8360    -1.1370     0.7470 ha         1 YE5       0.134000
     33 H11         -4.3270     1.2450     0.9650 ha         1 YE5       0.122000
     34 H12          1.1150    -0.8680     0.6080 ha         1 YE5       0.135000
     35 H13         -0.8000    -1.8700    -0.6570 ha         1 YE5       0.121000
     36 H14         -3.2120     3.1530     1.8870 h1         1 YE5       0.037700
     37 H15         -3.7310     3.4440     0.2030 h1         1 YE5       0.037700
     38 H16          6.6810    -0.9990     0.6210 hn         1 YE5       0.406000
     39 CAQ         -3.1990    -3.1670    -0.0870 c          1 YE5       0.592700
@<TRIPOS>BOND
     1     1    10 1   
     2     1    23 1   
     3     1    24 1   
     4     1    25 1   
     5     2    26 1   
     6     2    27 1   
     7     2    28 1   
     8     2    39 1   
     9     3     4 ar  
    10     3     5 ar  
    11     3    29 1   
    12     4    12 ar  
    13     4    30 1   
    14     5    13 ar  
    15     5    31 1   
    16     6     7 ar  
    17     6    11 ar  
    18     6    32 1   
    19     7    14 ar  
    20     7    33 1   
    21     8    12 ar  
    22     8    13 ar  
    23     8    34 1   
    24     9    11 ar  
    25     9    15 ar  
    26     9    35 1   
    27    10    22 1   
    28    10    36 1   
    29    10    37 1   
    30    11    39 1   
    31    12    15 1   
    32    13    16 1   
    33    14    15 ar  
    34    14    22 1   
    35    16    18 2   
    36    16    19 1   
    37    17    18 1   
    38    17    20 1   
    39    17    38 1   
    40    19    20 2   
    41    21    39 2   
@<TRIPOS>SUBSTRUCTURE
     1 YE5         1 TEMP              0 ****  ****    0 ROOT
