@<TRIPOS>MOLECULE
YE6
   25    26     1     0     0
SMALL
No Charge or Current Charge


@<TRIPOS>ATOM
      1 ClAP         1.1200    -2.0930     0.7050 cl         1 YE6      -0.194000
      2 CAG          2.1670    -0.8130     0.0890 ca         1 YE6       0.143000
      3 CAH          3.5050    -1.1390    -0.1960 ca         1 YE6      -0.108000
      4 CAI          4.3940    -0.1540    -0.6560 ca         1 YE6      -0.090000
      5 CAJ          3.9440     1.1650    -0.8280 ca         1 YE6      -0.109000
      6 CAK          2.6080     1.4960    -0.5430 ca         1 YE6      -0.082000
      7 CAF          1.7030     0.5130    -0.0860 ca         1 YE6      -0.119500
      8 CAD          0.3170     0.8930     0.1930 cc         1 YE6       0.204500
      9 OAN         -0.7670     0.1280    -0.1640 os         1 YE6      -0.228000
     10 CAC         -0.0720     2.0670     0.7750 cd         1 YE6      -0.180000
     11 CAB         -1.4840     2.0360     0.8120 cd         1 YE6      -0.106000
     12 CAA         -1.8770     0.8490     0.2400 cc         1 YE6       0.059500
     13 CAE         -3.2770     0.3780     0.0630 c          1 YE6       0.560600
     14 OAO         -4.2680     1.0110     0.4150 o          1 YE6      -0.553100
     15 NAL         -3.3660    -0.8750    -0.5520 ns         1 YE6      -0.402300
     16 NAM         -4.6110    -1.5810    -0.8510 n8         1 YE6      -0.719200
     17 HAH          3.8540    -2.1580    -0.0540 ha         1 YE6       0.132000
     18 HAI          5.4280    -0.4110    -0.8750 ha         1 YE6       0.122000
     19 HAJ          4.6300     1.9310    -1.1830 ha         1 YE6       0.123000
     20 HAK          2.2750     2.5220    -0.6900 ha         1 YE6       0.124000
     21 HAC          0.5750     2.8580     1.1400 ha         1 YE6       0.147000
     22 HAB         -2.1420     2.8010     1.2140 ha         1 YE6       0.161000
     23 HNAM        -4.7050    -1.7680    -1.8610 hn         1 YE6       0.399000
     24 H8          -2.4730    -1.3080    -0.7980 hn         1 YE6       0.317500
     25 H9          -4.6480    -2.4970    -0.3790 hn         1 YE6       0.399000
@<TRIPOS>BOND
     1     1     2 1   
     2     2     3 ar  
     3     2     7 ar  
     4     3     4 ar  
     5     3    17 1   
     6     4     5 ar  
     7     4    18 1   
     8     5     6 ar  
     9     5    19 1   
    10     6     7 ar  
    11     6    20 1   
    12     7     8 1   
    13     8     9 1   
    14     8    10 2   
    15     9    12 1   
    16    10    11 1   
    17    10    21 1   
    18    11    12 2   
    19    11    22 1   
    20    12    13 1   
    21    13    14 2   
    22    13    15 1   
    23    15    16 1   
    24    15    24 1   
    25    16    23 1   
    26    16    25 1   
@<TRIPOS>SUBSTRUCTURE
     1 YE6         1 TEMP              0 ****  ****    0 ROOT
