@<TRIPOS>MOLECULE
YE6
   25    26     1     0     0
SMALL
abcg2


@<TRIPOS>ATOM
      1 CLAP         0.9340    -2.0530     0.4570 cl         1 YE6      -0.194000
      2 CAG          2.0360    -0.8090    -0.0360 ca         1 YE6       0.143000
      3 CAH          3.3380    -1.1890    -0.3250 ca         1 YE6      -0.108000
      4 CAI          4.2770    -0.2310    -0.6730 ca         1 YE6      -0.090000
      5 CAJ          3.9120     1.1070    -0.7320 ca         1 YE6      -0.109000
      6 CAK          2.6080     1.4750    -0.4550 ca         1 YE6      -0.082000
      7 CAF          1.6400     0.5300    -0.1000 ca         1 YE6      -0.119500
      8 CAD          0.2990     1.0110     0.2040 cc         1 YE6       0.204500
      9 OAN         -0.7640     0.2590    -0.1330 os         1 YE6      -0.228000
     10 CAC         -0.1280     2.1750     0.7740 cd         1 YE6      -0.180000
     11 CAB         -1.5440     2.1210     0.7830 cd         1 YE6      -0.106000
     12 CAA         -1.8800     0.9300     0.2200 cc         1 YE6       0.059500
     13 CAE         -3.2040     0.3310    -0.0160 c          1 YE6       0.560600
     14 OAO         -4.2110     0.9680     0.2460 o          1 YE6      -0.553100
     15 NAL         -3.1840    -0.9190    -0.5140 ns         1 YE6      -0.402300
     16 NAM         -4.3640    -1.5900    -0.7800 n8         1 YE6      -0.719200
     17 HAH          3.6180    -2.2320    -0.2690 ha         1 YE6       0.132000
     18 HAI          5.2910    -0.5350    -0.8980 ha         1 YE6       0.122000
     19 HAJ          4.6370     1.8610    -1.0060 ha         1 YE6       0.123000
     20 HAK          2.3190     2.5150    -0.5290 ha         1 YE6       0.124000
     21 HAC          0.4950     2.9660     1.1580 ha         1 YE6       0.147000
     22 HAB         -2.2240     2.8640     1.1670 ha         1 YE6       0.161000
     23 HNAM        -4.3530    -1.8960    -1.7440 hn         1 YE6       0.399000
     24 H8          -2.3050    -1.3910    -0.6700 hn         1 YE6       0.317500
     25 H9          -4.4120    -2.4170    -0.1990 hn         1 YE6       0.399000
@<TRIPOS>BOND
     1     1     2 1   
     2     2     3 ar  
     3     2     7 ar  
     4     3     4 ar  
     5     3    17 1   
     6     4     5 ar  
     7     4    18 1   
     8     5     6 ar  
     9     5    19 1   
    10     6     7 ar  
    11     6    20 1   
    12     7     8 1   
    13     8     9 1   
    14     8    10 2   
    15     9    12 1   
    16    10    11 1   
    17    10    21 1   
    18    11    12 2   
    19    11    22 1   
    20    12    13 1   
    21    13    14 2   
    22    13    15 1   
    23    15    16 1   
    24    15    24 1   
    25    16    23 1   
    26    16    25 1   
@<TRIPOS>SUBSTRUCTURE
     1 YE6         1 TEMP              0 ****  ****    0 ROOT
