@<TRIPOS>MOLECULE
YE7
   27    29     1     0     0
SMALL
abcg2


@<TRIPOS>ATOM
      1 CAK          0.9800     0.1010     7.3160 cc         1 YE7      -0.180100
      2 NAM          0.3960    -0.0140     6.0880 na         1 YE7       0.106100
      3 CAH         -0.9060    -0.3260     5.7580 cc         1 YE7      -0.100000
      4 CAI         -1.2610    -0.3820     4.4640 cd         1 YE7      -0.123000
      5 CAE         -0.3080    -0.1260     3.4170 ca         1 YE7      -0.035000
      6 CAF         -0.6640    -0.1860     2.0610 ca         1 YE7      -0.097000
      7 CAA          0.2720     0.0630     1.0820 ca         1 YE7      -0.098000
      8 CAB          1.5910     0.3790     1.4290 ca         1 YE7      -0.107000
      9 CAC          1.9640     0.4450     2.7530 ca         1 YE7      -0.071000
     10 CAD          1.0210     0.1940     3.7570 ca         1 YE7      -0.010000
     11 CAG          1.3640     0.2490     5.1470 cc         1 YE7      -0.062000
     12 NAN          2.5110     0.5230     5.7180 nd         1 YE7      -0.294600
     13 CAJ          2.2830     0.4330     7.0570 cd         1 YE7      -0.036600
     14 CAL          3.3270     0.6720     8.0750 c          1 YE7       0.668300
     15 OAQ          3.0910     0.5480     9.2680 o          1 YE7      -0.578100
     16 NAO          4.5100     1.0290     7.5500 ns         1 YE7      -0.398300
     17 NAP          5.6040     1.2920     8.3530 n8         1 YE7      -0.720200
     18 HAK          0.4360    -0.0570     8.2310 h4         1 YE7       0.249000
     19 HAH         -1.5800    -0.5080     6.5810 h4         1 YE7       0.148000
     20 HAI         -2.2830    -0.6260     4.2090 ha         1 YE7       0.133000
     21 HAF         -1.6830    -0.4330     1.7930 ha         1 YE7       0.117000
     22 HAA         -0.0130     0.0120     0.0390 ha         1 YE7       0.117000
     23 HAB          2.3200     0.5710     0.6530 ha         1 YE7       0.119000
     24 HAC          2.9820     0.6880     3.0260 ha         1 YE7       0.135000
     25 HNAO         4.5890     1.1060     6.5450 hn         1 YE7       0.326500
     26 HAP1         6.3680     0.6920     8.0720 hn         1 YE7       0.395500
     27 HAP2         5.9010     2.2480     8.2040 hn         1 YE7       0.395500
@<TRIPOS>BOND
     1     1     2 1   
     2     1    13 2   
     3     1    18 1   
     4     2     3 1   
     5     2    11 1   
     6     3     4 2   
     7     3    19 1   
     8     4     5 1   
     9     4    20 1   
    10     5     6 ar  
    11     5    10 ar  
    12     6     7 ar  
    13     6    21 1   
    14     7     8 ar  
    15     7    22 1   
    16     8     9 ar  
    17     8    23 1   
    18     9    10 ar  
    19     9    24 1   
    20    10    11 1   
    21    11    12 2   
    22    12    13 1   
    23    13    14 1   
    24    14    15 2   
    25    14    16 1   
    26    16    17 1   
    27    16    25 1   
    28    17    26 1   
    29    17    27 1   
@<TRIPOS>SUBSTRUCTURE
     1 YE7         1 TEMP              0 ****  ****    0 ROOT
