@<TRIPOS>MOLECULE
YE7
   27    29     1     0     0
SMALL
No Charge or Current Charge


@<TRIPOS>ATOM
      1 CAK          0.9670     0.1110     7.3100 cc         1 YE7      -0.180100
      2 NAM          0.4310    -0.0010     6.0630 na         1 YE7       0.106100
      3 CAH         -0.9100    -0.3420     5.8320 cc         1 YE7      -0.100000
      4 CAI         -1.2380    -0.3980     4.4780 cd         1 YE7      -0.123000
      5 CAE         -0.3050    -0.1340     3.3690 ca         1 YE7      -0.035000
      6 CAF         -0.7130    -0.2110     2.0240 ca         1 YE7      -0.097000
      7 CAA          0.2100     0.0490     0.9950 ca         1 YE7      -0.098000
      8 CAB          1.5390     0.3850     1.3080 ca         1 YE7      -0.107000
      9 CAC          1.9470     0.4620     2.6520 ca         1 YE7      -0.071000
     10 CAD          1.0190     0.2010     3.6770 ca         1 YE7      -0.010000
     11 CAG          1.3500     0.2570     5.0870 cc         1 YE7      -0.062000
     12 NAN          2.5070     0.5430     5.6580 nd         1 YE7      -0.294600
     13 CAJ          2.2830     0.4560     7.0400 cd         1 YE7      -0.036600
     14 CAL          3.2730     0.6890     8.1400 c          1 YE7       0.668300
     15 OAQ          3.0130     0.5960     9.3360 o          1 YE7      -0.578100
     16 NAO          4.5450     1.0270     7.6640 ns         1 YE7      -0.398300
     17 NAP          5.7200     1.3130     8.4920 n8         1 YE7      -0.720200
     18 HAK          0.4220    -0.0490     8.2330 h4         1 YE7       0.249000
     19 HAH         -1.5650    -0.5290     6.6730 h4         1 YE7       0.148000
     20 HAI         -2.2630    -0.6570     4.2290 ha         1 YE7       0.133000
     21 HAF         -1.7400    -0.4710     1.7780 ha         1 YE7       0.117000
     22 HAA         -0.1060    -0.0110    -0.0450 ha         1 YE7       0.117000
     23 HAB          2.2520     0.5860     0.5110 ha         1 YE7       0.119000
     24 HAC          2.9750     0.7220     2.8940 ha         1 YE7       0.135000
     25 HNAO         4.6220     1.0680     6.6460 hn         1 YE7       0.326500
     26 HAP1         6.4940     0.6630     8.2850 hn         1 YE7       0.395500
     27 HAP2         6.0810     2.2630     8.3180 hn         1 YE7       0.395500
@<TRIPOS>BOND
     1     1     2 1   
     2     1    13 2   
     3     1    18 1   
     4     2     3 1   
     5     2    11 1   
     6     3     4 2   
     7     3    19 1   
     8     4     5 1   
     9     4    20 1   
    10     5     6 ar  
    11     5    10 ar  
    12     6     7 ar  
    13     6    21 1   
    14     7     8 ar  
    15     7    22 1   
    16     8     9 ar  
    17     8    23 1   
    18     9    10 ar  
    19     9    24 1   
    20    10    11 1   
    21    11    12 2   
    22    12    13 1   
    23    13    14 1   
    24    14    15 2   
    25    14    16 1   
    26    16    17 1   
    27    16    25 1   
    28    17    26 1   
    29    17    27 1   
@<TRIPOS>SUBSTRUCTURE
     1 YE7         1 TEMP              0 ****  ****    0 ROOT
