@<TRIPOS>MOLECULE
YEB
   26    26     1     0     0
SMALL
abcg2


@<TRIPOS>ATOM
      1 C01        -35.9180   -13.6850   -59.6830 c3         1 YEB       0.207600
      2 C03        -37.1230   -12.5140   -57.8580 c3         1 YEB       0.207600
      3 C08        -35.3440   -10.0550   -59.6120 c6         1 YEB       0.158300
      4 C09        -33.9440    -9.6330   -60.0250 c6         1 YEB       0.154100
      5 C11        -34.5620    -9.5370   -62.2850 c6         1 YEB       0.154100
      6 C12        -35.9860    -9.9560   -61.9640 c6         1 YEB       0.158300
      7 N02        -36.9310   -12.7030   -59.2960 n3         1 YEB      -0.794500
      8 N07        -35.9660   -10.7740   -60.7360 n3         1 YEB      -0.766500
      9 O05        -37.7500   -12.2310   -61.6130 o          1 YEB      -0.562500
     10 O06        -38.3410   -10.7220   -59.7470 o          1 YEB      -0.562500
     11 O10        -33.9680    -8.8300   -61.2000 os         1 YEB      -0.450000
     12 S04        -37.3680   -11.5840   -60.3810 s6         1 YEB       1.324200
     13 H011       -35.9260   -13.8250   -60.7600 h1         1 YEB       0.049367
     14 H012       -34.9220   -13.3660   -59.3650 h1         1 YEB       0.049367
     15 H013       -36.1600   -14.6340   -59.2030 h1         1 YEB       0.049367
     16 H032       -37.8550   -11.7330   -57.6810 h1         1 YEB       0.049367
     17 H033       -37.4890   -13.4500   -57.4340 h1         1 YEB       0.049367
     18 H031       -36.1820   -12.2490   -57.3680 h1         1 YEB       0.049367
     19 H082       -35.2760   -10.7130   -58.7480 h1         1 YEB       0.062950
     20 H092       -33.4910    -9.0320   -59.2380 h1         1 YEB       0.055700
     21 H091       -33.3260   -10.5230   -60.1970 h1         1 YEB       0.055700
     22 H111       -34.5590    -8.8640   -63.1420 h1         1 YEB       0.055700
     23 H112       -33.9610   -10.4240   -62.5220 h1         1 YEB       0.055700
     24 H122       -36.6130    -9.0670   -61.8240 h1         1 YEB       0.062950
     25 H121       -36.3890   -10.5510   -62.7800 h1         1 YEB       0.062950
     26 H081       -35.9370    -9.1750   -59.3380 h1         1 YEB       0.062950
@<TRIPOS>BOND
     1     1     7 1   
     2     1    13 1   
     3     1    14 1   
     4     1    15 1   
     5     2     7 1   
     6     2    16 1   
     7     2    17 1   
     8     2    18 1   
     9     3     4 1   
    10     3     8 1   
    11     3    19 1   
    12     3    26 1   
    13     4    11 1   
    14     4    20 1   
    15     4    21 1   
    16     5     6 1   
    17     5    11 1   
    18     5    22 1   
    19     5    23 1   
    20     6     8 1   
    21     6    24 1   
    22     6    25 1   
    23     7    12 1   
    24     8    12 1   
    25     9    12 2   
    26    10    12 2   
@<TRIPOS>SUBSTRUCTURE
     1 YEB         1 TEMP              0 ****  ****    0 ROOT
