@<TRIPOS>MOLECULE
YEB
   26    26     1     0     0
SMALL
No Charge or Current Charge


@<TRIPOS>ATOM
      1 C01        -35.8360   -13.4800   -59.6860 c3         1 YEB       0.207600
      2 C03        -37.3630   -12.6910   -57.9030 c3         1 YEB       0.207600
      3 C08        -35.2680   -10.1060   -59.6150 c6         1 YEB       0.158300
      4 C09        -33.8290    -9.6940   -60.0360 c6         1 YEB       0.154100
      5 C11        -34.4900    -9.6200   -62.3500 c6         1 YEB       0.154100
      6 C12        -35.9410   -10.0400   -61.9740 c6         1 YEB       0.158300
      7 N02        -37.1100   -12.8090   -59.3520 n3         1 YEB      -0.794500
      8 N07        -35.9760   -10.8370   -60.7120 n3         1 YEB      -0.766500
      9 O05        -38.1950   -11.9410   -61.5020 o          1 YEB      -0.562500
     10 O06        -38.1720   -10.4280   -59.4450 o          1 YEB      -0.562500
     11 O10        -33.8690    -8.9100   -61.2520 os         1 YEB      -0.450000
     12 S04        -37.5320   -11.4340   -60.2970 s6         1 YEB       1.324200
     13 H011       -35.7500   -13.6410   -60.7700 h1         1 YEB       0.049367
     14 H012       -34.9680   -12.8960   -59.3540 h1         1 YEB       0.049367
     15 H013       -35.7810   -14.4630   -59.2010 h1         1 YEB       0.049367
     16 H032       -38.4070   -12.4100   -57.7070 h1         1 YEB       0.049367
     17 H033       -37.1800   -13.6480   -57.3970 h1         1 YEB       0.049367
     18 H031       -36.7110   -11.9340   -57.4470 h1         1 YEB       0.049367
     19 H082       -35.2000   -10.7240   -58.7090 h1         1 YEB       0.062950
     20 H092       -33.3600    -9.1000   -59.2390 h1         1 YEB       0.055700
     21 H091       -33.2160   -10.5910   -60.2020 h1         1 YEB       0.055700
     22 H111       -34.5060    -8.9720   -63.2370 h1         1 YEB       0.055700
     23 H112       -33.8940   -10.5120   -62.5890 h1         1 YEB       0.055700
     24 H122       -36.5570    -9.1340   -61.8750 h1         1 YEB       0.062950
     25 H121       -36.3550   -10.6210   -62.8110 h1         1 YEB       0.062950
     26 H081       -35.8210    -9.1960   -59.3370 h1         1 YEB       0.062950
@<TRIPOS>BOND
     1     1     7 1   
     2     1    13 1   
     3     1    14 1   
     4     1    15 1   
     5     2     7 1   
     6     2    16 1   
     7     2    17 1   
     8     2    18 1   
     9     3     4 1   
    10     3     8 1   
    11     3    19 1   
    12     3    26 1   
    13     4    11 1   
    14     4    20 1   
    15     4    21 1   
    16     5     6 1   
    17     5    11 1   
    18     5    22 1   
    19     5    23 1   
    20     6     8 1   
    21     6    24 1   
    22     6    25 1   
    23     7    12 1   
    24     8    12 1   
    25     9    12 2   
    26    10    12 2   
@<TRIPOS>SUBSTRUCTURE
     1 YEB         1 TEMP              0 ****  ****    0 ROOT
