@<TRIPOS>MOLECULE
YED
   97   100     1     0     0
SMALL
No Charge or Current Charge


@<TRIPOS>ATOM
      1 O6          75.5710    36.8000     0.8750 o          1 YED      -0.552100
      2 C10         75.2720    35.6840     1.2750 c          1 YED       0.577100
      3 N1          76.2220    34.6910     1.4360 ns         1 YED      -0.509900
      4 C11         77.6890    34.8720     1.3080 c3         1 YED       0.035700
      5 C12         78.4240    34.3710     2.5910 c3         1 YED      -0.065700
      6 C14         77.8430    34.9660     3.9110 c3         1 YED      -0.071400
      7 C15         77.8990    36.5070     4.0300 c3         1 YED      -0.091100
      8 C13         79.9570    34.5780     2.4990 c3         1 YED      -0.089100
      9 C16         78.2660    34.2500    -0.0150 c          1 YED       0.602100
     10 O5          78.8110    34.9880    -0.8300 o          1 YED      -0.573100
     11 N2          78.2490    32.8390    -0.2360 n          1 YED      -0.381800
     12 C32         78.9760    32.3020    -1.4290 c6         1 YED       0.083000
     13 C31         79.2390    30.7770    -1.3890 c6         1 YED      -0.088400
     14 C30         77.9540    29.9830    -1.0900 c6         1 YED      -0.076400
     15 C29         77.3510    30.4850     0.2330 c6         1 YED      -0.075400
     16 C17         77.0580    32.0110     0.1680 c6         1 YED       0.047700
     17 C18         75.7550    32.3620    -0.6210 c          1 YED       0.554100
     18 O4          75.7000    33.2950    -1.4100 o          1 YED      -0.547100
     19 N3          74.6080    31.6690    -0.2700 ns         1 YED      -0.516900
     20 C19         73.2440    32.0920    -0.6860 c3         1 YED       0.023700
     21 C20         72.1960    31.0410    -0.2480 c3         1 YED      -0.082400
     22 C21         70.7640    31.3200    -0.7620 c3         1 YED      -0.078400
     23 C22         69.7590    30.2170    -0.3630 c3         1 YED      -0.075400
     24 C23         68.3260    30.4910    -0.8730 c3         1 YED      -0.071400
     25 C24         67.3230    29.3750    -0.4690 c3         1 YED      -0.138400
     26 C25         65.8570    29.5620    -0.9490 c3         1 YED       0.413000
     27 O2          65.3180    30.7390    -0.4000 oh         1 YED      -0.642000
     28 C26         64.9310    28.3630    -0.6140 c3         1 YED      -0.133400
     29 C27         64.7860    28.0240     0.8900 c3         1 YED      -0.088100
     30 O1          65.8380    29.7620    -2.3410 oh         1 YED      -0.642000
     31 C28         72.9270    33.5250    -0.1490 c          1 YED       0.592100
     32 O3          72.2630    34.3390    -0.7760 o          1 YED      -0.539100
     33 N4          73.5780    33.8620     1.0240 ns         1 YED      -0.505900
     34 C9          73.7960    35.2450     1.5180 c3         1 YED       0.026700
     35 C8          73.4110    35.3410     3.0140 c3         1 YED       0.000800
     36 C7          73.7950    36.6400     3.6790 cc         1 YED      -0.166400
     37 C33         73.7110    37.9280     3.1480 cd         1 YED      -0.118100
     38 N           74.2430    38.8360     4.0810 na         1 YED       0.078300
     39 O           74.5800    40.1980     3.8140 os         1 YED      -0.268000
     40 C           75.8740    40.3160     3.2030 c3         1 YED       0.099900
     41 C6          74.3920    36.7870     4.9850 ca         1 YED      -0.092800
     42 C1          74.6570    38.1150     5.1830 ca         1 YED      -0.040200
     43 C5          74.7130    35.8240     5.9540 ca         1 YED      -0.073000
     44 C4          75.3230    36.2620     7.1490 ca         1 YED      -0.135000
     45 C3          75.5970    37.6360     7.3510 ca         1 YED      -0.099000
     46 C2          75.2620    38.5810     6.3590 ca         1 YED      -0.109000
     47 H1          75.8840    33.8150     1.8080 hn         1 YED       0.303500
     48 H2          77.8900    35.9470     1.2220 h1         1 YED       0.099700
     49 H3          78.2680    33.2870     2.6560 hc         1 YED       0.036700
     50 H4          76.8020    34.6440     4.0350 hc         1 YED       0.035700
     51 H5          78.3870    34.5350     4.7610 hc         1 YED       0.035700
     52 H6          77.5220    36.8220     5.0100 hc         1 YED       0.038367
     53 H7          78.9260    36.8770     3.9310 hc         1 YED       0.038367
     54 H8          77.2780    36.9870     3.2640 hc         1 YED       0.038367
     55 H9          80.4480    34.2640     3.4280 hc         1 YED       0.043700
     56 H10         80.3870    33.9840     1.6840 hc         1 YED       0.043700
     57 H11         80.2050    35.6310     2.3200 hc         1 YED       0.043700
     58 H12         79.9430    32.8160    -1.5320 h1         1 YED       0.069200
     59 H13         78.3900    32.5390    -2.3290 h1         1 YED       0.069200
     60 H14         79.6700    30.4500    -2.3450 hc         1 YED       0.049200
     61 H15         79.9930    30.5600    -0.6190 hc         1 YED       0.049200
     62 H16         77.2320    30.1020    -1.9100 hc         1 YED       0.049700
     63 H17         78.1820    28.9100    -1.0190 hc         1 YED       0.049700
     64 H18         76.4500    29.9100     0.4840 hc         1 YED       0.046200
     65 H19         78.0640    30.2930     1.0480 hc         1 YED       0.046200
     66 H20         76.8130    32.2660     1.2040 h1         1 YED       0.059700
     67 H21         74.7040    30.8990     0.3840 hn         1 YED       0.307500
     68 H22         73.2310    32.1630    -1.7820 h1         1 YED       0.104700
     69 H23         72.5140    30.0570    -0.6160 hc         1 YED       0.042200
     70 H24         72.1820    30.9800     0.8470 hc         1 YED       0.042200
     71 H25         70.4110    32.2800    -0.3660 hc         1 YED       0.056700
     72 H26         70.7840    31.4110    -1.8560 hc         1 YED       0.056700
     73 H27         70.1040    29.2540    -0.7600 hc         1 YED       0.033200
     74 H28         69.7410    30.1250     0.7300 hc         1 YED       0.033200
     75 H29         67.9900    31.4570    -0.4760 hc         1 YED       0.055700
     76 H30         68.3520    30.5840    -1.9660 hc         1 YED       0.055700
     77 H31         67.3320    29.2870     0.6240 hc         1 YED       0.043200
     78 H32         67.6940    28.4180    -0.8570 hc         1 YED       0.043200
     79 H33         66.0600    31.3740    -0.3820 ho         1 YED       0.453000
     80 H34         63.9280    28.5600    -1.0140 hc         1 YED       0.053200
     81 H35         65.3010    27.4710    -1.1340 hc         1 YED       0.053200
     82 H36         64.0650    27.2090     1.0260 hc         1 YED       0.035033
     83 H37         65.7420    27.6990     1.3170 hc         1 YED       0.035033
     84 H38         64.4280    28.8910     1.4580 hc         1 YED       0.035033
     85 H39         64.9200    29.5670    -2.6180 ho         1 YED       0.453000
     86 H40         74.0390    33.0960     1.4990 hn         1 YED       0.289500
     87 H41         73.1690    35.9440     0.9500 h1         1 YED       0.114700
     88 H42         72.3300    35.1840     3.1140 hc         1 YED       0.049700
     89 H43         73.8900    34.5100     3.5450 hc         1 YED       0.049700
     90 H44         73.3590    38.2610     2.1780 h4         1 YED       0.239000
     91 H45         76.1090    41.3690     3.0070 h1         1 YED       0.055700
     92 H46         76.6540    39.9070     3.8590 h1         1 YED       0.055700
     93 H47         75.9070    39.7740     2.2490 h1         1 YED       0.055700
     94 H48         74.5040    34.7690     5.7940 ha         1 YED       0.107000
     95 H49         75.5850    35.5390     7.9180 ha         1 YED       0.111000
     96 H50         76.0680    37.9640     8.2750 ha         1 YED       0.113000
     97 H51         75.4660    39.6400     6.5020 ha         1 YED       0.126000
@<TRIPOS>BOND
     1     1     2 2   
     2     2     3 1   
     3     2    34 1   
     4     3     4 1   
     5     3    47 1   
     6     4     5 1   
     7     4     9 1   
     8     4    48 1   
     9     5     6 1   
    10     5     8 1   
    11     5    49 1   
    12     6     7 1   
    13     6    50 1   
    14     6    51 1   
    15     7    52 1   
    16     7    53 1   
    17     7    54 1   
    18     8    55 1   
    19     8    56 1   
    20     8    57 1   
    21     9    10 2   
    22     9    11 1   
    23    11    12 1   
    24    11    16 1   
    25    12    13 1   
    26    12    58 1   
    27    12    59 1   
    28    13    14 1   
    29    13    60 1   
    30    13    61 1   
    31    14    15 1   
    32    14    62 1   
    33    14    63 1   
    34    15    16 1   
    35    15    64 1   
    36    15    65 1   
    37    16    17 1   
    38    16    66 1   
    39    17    18 2   
    40    17    19 1   
    41    19    20 1   
    42    19    67 1   
    43    20    21 1   
    44    20    31 1   
    45    20    68 1   
    46    21    22 1   
    47    21    69 1   
    48    21    70 1   
    49    22    23 1   
    50    22    71 1   
    51    22    72 1   
    52    23    24 1   
    53    23    73 1   
    54    23    74 1   
    55    24    25 1   
    56    24    75 1   
    57    24    76 1   
    58    25    26 1   
    59    25    77 1   
    60    25    78 1   
    61    26    27 1   
    62    26    28 1   
    63    26    30 1   
    64    27    79 1   
    65    28    29 1   
    66    28    80 1   
    67    28    81 1   
    68    29    82 1   
    69    29    83 1   
    70    29    84 1   
    71    30    85 1   
    72    31    32 2   
    73    31    33 1   
    74    33    34 1   
    75    33    86 1   
    76    34    35 1   
    77    34    87 1   
    78    35    36 1   
    79    35    88 1   
    80    35    89 1   
    81    36    37 2   
    82    36    41 1   
    83    37    38 1   
    84    37    90 1   
    85    38    39 1   
    86    38    42 1   
    87    39    40 1   
    88    40    91 1   
    89    40    92 1   
    90    40    93 1   
    91    41    42 ar  
    92    41    43 ar  
    93    42    46 ar  
    94    43    44 ar  
    95    43    94 1   
    96    44    45 ar  
    97    44    95 1   
    98    45    46 ar  
    99    45    96 1   
   100    46    97 1   
@<TRIPOS>SUBSTRUCTURE
     1 YED         1 TEMP              0 ****  ****    0 ROOT
