@<TRIPOS>MOLECULE
YED
   97   100     1     0     0
SMALL
bcc


@<TRIPOS>ATOM
      1 O6          75.4760    36.1660     0.1560 o          1 YED      -0.552100
      2 C10         75.1490    35.2680     0.9100 c          1 YED       0.644100
      3 N1          76.0420    34.4870     1.5520 ns         1 YED      -0.576900
      4 C11         77.4670    34.7280     1.5120 c3         1 YED       0.035700
      5 C12         78.1530    34.1340     2.7570 c3         1 YED      -0.065700
      6 C14         77.5580    34.7040     4.0550 c3         1 YED      -0.071400
      7 C15         77.6240    36.2180     4.2050 c3         1 YED      -0.091100
      8 C13         79.6640    34.3430     2.7060 c3         1 YED      -0.089100
      9 C16         78.1800    34.3180     0.2060 c          1 YED       0.669100
     10 O5          78.8420    35.1790    -0.3520 o          1 YED      -0.573100
     11 N2          78.1780    33.0290    -0.2340 n          1 YED      -0.448800
     12 C32         78.9360    32.7390    -1.4540 c6         1 YED       0.083000
     13 C31         79.4720    31.3180    -1.4720 c6         1 YED      -0.088400
     14 C30         78.3620    30.3070    -1.2380 c6         1 YED      -0.076400
     15 C29         77.6840    30.6310     0.0790 c6         1 YED      -0.075400
     16 C17         77.1530    32.0670     0.1230 c6         1 YED       0.047700
     17 C18         75.9070    32.2980    -0.7460 c          1 YED       0.621100
     18 O4          75.8470    33.2090    -1.5530 o          1 YED      -0.547100
     19 N3          74.8510    31.4870    -0.5230 ns         1 YED      -0.583900
     20 C19         73.5400    31.8460    -1.0360 c3         1 YED       0.023700
     21 C20         72.4830    30.8810    -0.4980 c3         1 YED      -0.082400
     22 C21         71.0640    31.2720    -0.8900 c3         1 YED      -0.078400
     23 C22         70.0220    30.2760    -0.4000 c3         1 YED      -0.075400
     24 C23         68.6030    30.7260    -0.7250 c3         1 YED      -0.071400
     25 C24         67.5480    29.7650    -0.1920 c3         1 YED      -0.138400
     26 C25         66.0990    30.2160    -0.4160 c3         1 YED       0.366600
     27 O2          65.8520    31.4600     0.1850 oh         1 YED      -0.579800
     28 C26         65.0910    29.1690     0.0850 c3         1 YED      -0.133400
     29 C27         65.1290    28.9000     1.5840 c3         1 YED      -0.088100
     30 O1          65.8600    30.4840    -1.7760 oh         1 YED      -0.579800
     31 C28         73.2210    33.3010    -0.6630 c          1 YED       0.659100
     32 O3          72.8080    34.1120    -1.4680 o          1 YED      -0.539100
     33 N4          73.4190    33.5750     0.6480 ns         1 YED      -0.572900
     34 C9          73.6750    34.9060     1.1560 c3         1 YED       0.026700
     35 C8          73.2790    34.9790     2.6310 c3         1 YED       0.000800
     36 C7          73.6720    36.2590     3.2930 cc         1 YED      -0.166400
     37 C33         73.7070    37.5110     2.7440 cd         1 YED      -0.068100
     38 N           74.1110    38.4020     3.6990 na         1 YED       0.038500
     39 O           74.2630    39.7270     3.4950 os         1 YED      -0.205000
     40 C           75.5720    40.0350     3.0080 c3         1 YED       0.076700
     41 C6          74.0800    36.4050     4.6600 ca         1 YED      -0.092800
     42 C1          74.3530    37.7710     4.8810 ca         1 YED      -0.040200
     43 C5          74.2480    35.5060     5.7190 ca         1 YED      -0.091000
     44 C4          74.6790    35.9840     6.9400 ca         1 YED      -0.153000
     45 C3          74.9430    37.3510     7.1320 ca         1 YED      -0.117000
     46 C2          74.7830    38.2660     6.1100 ca         1 YED      -0.127000
     47 H1          75.7030    33.8220     2.2290 hn         1 YED       0.303500
     48 H2          77.6200    35.8090     1.5360 h1         1 YED       0.099700
     49 H3          77.9740    33.0520     2.7750 hc         1 YED       0.036700
     50 H4          76.5180    34.3840     4.1690 hc         1 YED       0.035700
     51 H5          78.0930    34.2360     4.8850 hc         1 YED       0.035700
     52 H6          77.2270    36.5130     5.1770 hc         1 YED       0.038367
     53 H7          78.6450    36.5940     4.1350 hc         1 YED       0.038367
     54 H8          77.0240    36.7330     3.4530 hc         1 YED       0.038367
     55 H9          80.1160    33.9900     3.6330 hc         1 YED       0.043700
     56 H10         80.1270    33.7860     1.8910 hc         1 YED       0.043700
     57 H11         79.9310    35.3930     2.5870 hc         1 YED       0.043700
     58 H12         79.7620    33.4410    -1.5150 h1         1 YED       0.069200
     59 H13         78.3050    32.9050    -2.3320 h1         1 YED       0.069200
     60 H14         79.9600    31.1520    -2.4340 hc         1 YED       0.049200
     61 H15         80.2390    31.2030    -0.7010 hc         1 YED       0.049200
     62 H16         77.6410    30.3400    -2.0610 hc         1 YED       0.049700
     63 H17         78.7610    29.2910    -1.2130 hc         1 YED       0.049700
     64 H18         76.8750    29.9310     0.2950 hc         1 YED       0.046200
     65 H19         78.4040    30.5210     0.8940 hc         1 YED       0.046200
     66 H20         76.8390    32.2350     1.1510 h1         1 YED       0.059700
     67 H21         74.8970    30.8050     0.2200 hn         1 YED       0.307500
     68 H22         73.5390    31.7990    -2.1280 h1         1 YED       0.104700
     69 H23         72.7100    29.8810    -0.8780 hc         1 YED       0.042200
     70 H24         72.5560    30.8220     0.5930 hc         1 YED       0.042200
     71 H25         70.8230    32.2540    -0.4730 hc         1 YED       0.056700
     72 H26         70.9950    31.3730    -1.9770 hc         1 YED       0.056700
     73 H27         70.2120    29.2920    -0.8410 hc         1 YED       0.033200
     74 H28         70.1250    30.1500     0.6840 hc         1 YED       0.033200
     75 H29         68.4470    31.7230    -0.3030 hc         1 YED       0.055700
     76 H30         68.4990    30.8320    -1.8080 hc         1 YED       0.055700
     77 H31         67.7140    29.6100     0.8800 hc         1 YED       0.043200
     78 H32         67.6810    28.7780    -0.6500 hc         1 YED       0.043200
     79 H33         66.2900    31.4880     1.0420 ho         1 YED       0.414000
     80 H34         64.0910    29.5120    -0.1950 hc         1 YED       0.053200
     81 H35         65.2610    28.2310    -0.4540 hc         1 YED       0.053200
     82 H36         64.3460    28.1950     1.8610 hc         1 YED       0.035033
     83 H37         66.0780    28.4690     1.9040 hc         1 YED       0.035033
     84 H38         64.9610    29.8090     2.1620 hc         1 YED       0.035033
     85 H39         65.9180    29.6580    -2.2670 ho         1 YED       0.414000
     86 H40         73.7520    32.8160     1.2240 hn         1 YED       0.289500
     87 H41         73.0780    35.6150     0.5830 h1         1 YED       0.114700
     88 H42         72.1990    34.8160     2.6930 hc         1 YED       0.049700
     89 H43         73.7300    34.1450     3.1790 hc         1 YED       0.049700
     90 H44         73.4740    37.8490     1.7460 h4         1 YED       0.189000
     91 H45         75.5990    41.1160     2.8970 h1         1 YED       0.055700
     92 H46         76.3440    39.7220     3.7130 h1         1 YED       0.055700
     93 H47         75.7520    39.5680     2.0370 h1         1 YED       0.055700
     94 H48         74.0460    34.4500     5.5840 ha         1 YED       0.125000
     95 H49         74.8140    35.2990     7.7670 ha         1 YED       0.129000
     96 H50         75.2760    37.6950     8.1030 ha         1 YED       0.131000
     97 H51         74.9840    39.3190     6.2600 ha         1 YED       0.144000
@<TRIPOS>BOND
     1     1     2 2   
     2     2     3 1   
     3     2    34 1   
     4     3     4 1   
     5     3    47 1   
     6     4     5 1   
     7     4     9 1   
     8     4    48 1   
     9     5     6 1   
    10     5     8 1   
    11     5    49 1   
    12     6     7 1   
    13     6    50 1   
    14     6    51 1   
    15     7    52 1   
    16     7    53 1   
    17     7    54 1   
    18     8    55 1   
    19     8    56 1   
    20     8    57 1   
    21     9    10 2   
    22     9    11 1   
    23    11    12 1   
    24    11    16 1   
    25    12    13 1   
    26    12    58 1   
    27    12    59 1   
    28    13    14 1   
    29    13    60 1   
    30    13    61 1   
    31    14    15 1   
    32    14    62 1   
    33    14    63 1   
    34    15    16 1   
    35    15    64 1   
    36    15    65 1   
    37    16    17 1   
    38    16    66 1   
    39    17    18 2   
    40    17    19 1   
    41    19    20 1   
    42    19    67 1   
    43    20    21 1   
    44    20    31 1   
    45    20    68 1   
    46    21    22 1   
    47    21    69 1   
    48    21    70 1   
    49    22    23 1   
    50    22    71 1   
    51    22    72 1   
    52    23    24 1   
    53    23    73 1   
    54    23    74 1   
    55    24    25 1   
    56    24    75 1   
    57    24    76 1   
    58    25    26 1   
    59    25    77 1   
    60    25    78 1   
    61    26    27 1   
    62    26    28 1   
    63    26    30 1   
    64    27    79 1   
    65    28    29 1   
    66    28    80 1   
    67    28    81 1   
    68    29    82 1   
    69    29    83 1   
    70    29    84 1   
    71    30    85 1   
    72    31    32 2   
    73    31    33 1   
    74    33    34 1   
    75    33    86 1   
    76    34    35 1   
    77    34    87 1   
    78    35    36 1   
    79    35    88 1   
    80    35    89 1   
    81    36    37 2   
    82    36    41 1   
    83    37    38 1   
    84    37    90 1   
    85    38    39 1   
    86    38    42 1   
    87    39    40 1   
    88    40    91 1   
    89    40    92 1   
    90    40    93 1   
    91    41    42 ar  
    92    41    43 ar  
    93    42    46 ar  
    94    43    44 ar  
    95    43    94 1   
    96    44    45 ar  
    97    44    95 1   
    98    45    46 ar  
    99    45    96 1   
   100    46    97 1   
@<TRIPOS>SUBSTRUCTURE
     1 YED         1 TEMP              0 ****  ****    0 ROOT
