@<TRIPOS>MOLECULE
YEE
   65    68     1     0     0
SMALL
No Charge or Current Charge


@<TRIPOS>ATOM
      1 C14         -4.1080     4.6080   -45.0080 ca         1 YEE       0.318000
      2 C16         -6.2580     5.0550   -46.2860 c6         1 YEE       0.167300
      3 C32          6.7260     4.2730   -40.6800 c          1 YEE       0.643700
      4 C01          7.1400     3.8370   -44.9350 c3         1 YEE       0.146900
      5 C03          5.6860     3.7010   -42.9290 ca         1 YEE       0.201100
      6 C04          4.5760     3.3100   -43.7110 ca         1 YEE      -0.215000
      7 C05          3.3110     3.0790   -43.1340 cp         1 YEE       0.048000
      8 C06          2.1540     2.6540   -43.9750 cp         1 YEE      -0.109000
      9 C07          2.2920     1.5190   -44.8100 ca         1 YEE       0.347900
     10 C09          0.1290     1.6850   -45.5910 ca         1 YEE       0.346900
     11 C10         -0.1460     2.8310   -44.8030 cp         1 YEE      -0.075000
     12 C11         -1.5040     3.4520   -44.8660 cp         1 YEE      -0.088000
     13 C12         -2.2720     3.6640   -43.6970 ca         1 YEE      -0.059000
     14 C13         -3.5530     4.2370   -43.7690 ca         1 YEE      -0.178000
     15 C17         -7.7750     5.3110   -45.9960 c6         1 YEE       0.154800
     16 C19         -7.7680     7.8350   -46.1520 c3         1 YEE       0.182500
     17 C20         -8.5770     7.8300   -47.4750 c3         1 YEE      -0.091600
     18 C21         -8.0440     9.1620   -45.4010 c3         1 YEE      -0.091600
     19 C22         -7.2640     6.5840   -44.0140 c6         1 YEE       0.154800
     20 C23         -5.7250     6.3810   -44.2160 c6         1 YEE       0.167300
     21 C24         -3.3560     4.3850   -46.1780 ca         1 YEE      -0.178000
     22 C25         -2.0740     3.8130   -46.1090 ca         1 YEE      -0.059000
     23 C26          0.9050     3.3410   -43.9870 ca         1 YEE      -0.009300
     24 C27          0.7180     4.6330   -43.1870 c3         1 YEE      -0.057800
     25 C28          3.1870     3.2330   -41.7410 ca         1 YEE      -0.186000
     26 C29          4.2770     3.6200   -40.9530 ca         1 YEE       0.234000
     27 C31          5.5460     3.8640   -41.5290 ca         1 YEE      -0.241600
     28 F30          4.0780     3.7100   -39.6190 f          1 YEE      -0.169000
     29 N08          1.3140     1.0380   -45.6050 nb         1 YEE      -0.663000
     30 N15         -5.4000     5.1820   -45.0600 nh         1 YEE      -0.789400
     31 N18         -8.0280     6.6220   -45.3070 n3         1 YEE      -0.710600
     32 N33          6.4890     4.9600   -39.5430 nt         1 YEE      -0.599000
     33 O34          7.8810     3.9780   -40.9410 o          1 YEE      -0.581100
     34 H162        -5.9170     5.7640   -47.0550 h1         1 YEE       0.042200
     35 H161        -6.1580     4.0450   -46.7090 h1         1 YEE       0.042200
     36 H013         8.1800     4.0940   -45.1730 h1         1 YEE       0.046700
     37 H012         6.9630     2.8050   -45.2650 h1         1 YEE       0.046700
     38 H011         6.4860     4.5090   -45.5040 h1         1 YEE       0.046700
     39 H041         4.6670     3.1920   -44.7860 ha         1 YEE       0.130000
     40 H071         3.2330     0.9700   -44.8330 h4         1 YEE       0.023100
     41 H091        -0.6460     1.2670   -46.2330 h4         1 YEE       0.024100
     42 H121        -1.8740     3.3700   -42.7290 ha         1 YEE       0.112000
     43 H131        -4.1240     4.3760   -42.8560 ha         1 YEE       0.114000
     44 H171        -8.3430     5.2240   -46.9310 h1         1 YEE       0.061700
     45 H172        -8.1340     4.4900   -45.3590 h1         1 YEE       0.061700
     46 H191        -6.7080     7.8560   -46.4380 h1         1 YEE       0.020700
     47 H201        -8.2440     7.0320   -48.1470 hc         1 YEE       0.038700
     48 H203        -9.6470     7.7000   -47.2760 hc         1 YEE       0.038700
     49 H202        -8.4430     8.7740   -48.0160 hc         1 YEE       0.038700
     50 H212        -7.3280     9.3190   -44.5860 hc         1 YEE       0.038700
     51 H213        -7.9450    10.0200   -46.0770 hc         1 YEE       0.038700
     52 H211        -9.0580     9.1710   -44.9850 hc         1 YEE       0.038700
     53 H221        -7.4350     7.4860   -43.4110 h1         1 YEE       0.061700
     54 H222        -7.6310     5.7490   -43.3990 h1         1 YEE       0.061700
     55 H231        -5.3030     7.2840   -44.6810 h1         1 YEE       0.042200
     56 H232        -5.2630     6.2920   -43.2220 h1         1 YEE       0.042200
     57 H241        -3.7540     4.6640   -47.1490 ha         1 YEE       0.114000
     58 H251        -1.5100     3.6570   -47.0270 ha         1 YEE       0.112000
     59 H272         0.3410     4.4240   -42.1800 hc         1 YEE       0.051700
     60 H273         1.6570     5.1890   -43.0860 hc         1 YEE       0.051700
     61 H271         0.0130     5.3150   -43.6750 hc         1 YEE       0.051700
     62 H281         2.2330     3.0340   -41.2600 ha         1 YEE       0.141000
     63 H332         7.2640     5.2240   -38.9550 hn         1 YEE       0.315500
     64 H331         5.5410     5.1900   -39.2840 hn         1 YEE       0.315500
     65 O02          6.9070     3.9700   -43.5210 os         1 YEE      -0.328100
@<TRIPOS>BOND
     1     1    14 ar  
     2     1    21 ar  
     3     1    30 1   
     4     2    15 1   
     5     2    30 1   
     6     2    34 1   
     7     2    35 1   
     8     3    27 1   
     9     3    32 1   
    10     3    33 2   
    11     4    36 1   
    12     4    37 1   
    13     4    38 1   
    14     4    65 1   
    15     5     6 ar  
    16     5    27 ar  
    17     5    65 1   
    18     6     7 ar  
    19     6    39 1   
    20     7     8 1   
    21     7    25 ar  
    22     8     9 ar  
    23     8    23 ar  
    24     9    29 ar  
    25     9    40 1   
    26    10    11 ar  
    27    10    29 ar  
    28    10    41 1   
    29    11    12 1   
    30    11    23 ar  
    31    12    13 ar  
    32    12    22 ar  
    33    13    14 ar  
    34    13    42 1   
    35    14    43 1   
    36    15    31 1   
    37    15    44 1   
    38    15    45 1   
    39    16    17 1   
    40    16    18 1   
    41    16    31 1   
    42    16    46 1   
    43    17    47 1   
    44    17    48 1   
    45    17    49 1   
    46    18    50 1   
    47    18    51 1   
    48    18    52 1   
    49    19    20 1   
    50    19    31 1   
    51    19    53 1   
    52    19    54 1   
    53    20    30 1   
    54    20    55 1   
    55    20    56 1   
    56    21    22 ar  
    57    21    57 1   
    58    22    58 1   
    59    23    24 1   
    60    24    59 1   
    61    24    60 1   
    62    24    61 1   
    63    25    26 ar  
    64    25    62 1   
    65    26    27 ar  
    66    26    28 1   
    67    32    63 1   
    68    32    64 1   
@<TRIPOS>SUBSTRUCTURE
     1 YEE         1 TEMP              0 ****  ****    0 ROOT
