@<TRIPOS>MOLECULE
YEE
   65    68     1     0     0
SMALL
abcg2


@<TRIPOS>ATOM
      1 C14         -4.1890     4.4200   -45.0320 ca         1 YEE       0.318000
      2 C16         -5.9790     5.2260   -46.4630 c6         1 YEE       0.167300
      3 C32          6.5350     4.3900   -40.7520 c          1 YEE       0.643700
      4 C01          6.9130     3.8700   -44.8600 c3         1 YEE       0.146900
      5 C03          5.4900     3.7670   -42.9630 ca         1 YEE       0.201100
      6 C04          4.3980     3.3330   -43.7110 ca         1 YEE      -0.215000
      7 C05          3.1740     3.0910   -43.0880 cp         1 YEE       0.048000
      8 C06          2.0270     2.6120   -43.8910 cp         1 YEE      -0.109000
      9 C07          2.1800     1.4530   -44.6450 ca         1 YEE       0.347900
     10 C09          0.0530     1.5470   -45.4030 ca         1 YEE       0.346900
     11 C10         -0.2260     2.7150   -44.6950 cp         1 YEE      -0.075000
     12 C11         -1.5740     3.3070   -44.8030 cp         1 YEE      -0.088000
     13 C12         -2.3370     3.6130   -43.6760 ca         1 YEE      -0.059000
     14 C13         -3.6030     4.1540   -43.7800 ca         1 YEE      -0.178000
     15 C17         -7.4730     5.5250   -46.4310 c6         1 YEE       0.154800
     16 C19         -7.4220     7.9260   -45.8910 c3         1 YEE       0.182500
     17 C20         -7.9570     8.2910   -47.2730 c3         1 YEE      -0.091600
     18 C21         -7.9170     8.9580   -44.8800 c3         1 YEE      -0.091600
     19 C22         -7.4070     6.1440   -44.1940 c6         1 YEE       0.154800
     20 C23         -5.9120     5.8680   -44.1000 c6         1 YEE       0.167300
     21 C24         -3.4180     4.1080   -46.1630 ca         1 YEE      -0.178000
     22 C25         -2.1510     3.5590   -46.0430 ca         1 YEE      -0.059000
     23 C26          0.7990     3.2850   -43.9260 ca         1 YEE      -0.009300
     24 C27          0.6140     4.5980   -43.2240 c3         1 YEE      -0.057800
     25 C28          3.0370     3.2720   -41.7170 ca         1 YEE      -0.186000
     26 C29          4.1360     3.7090   -41.0060 ca         1 YEE       0.234000
     27 C31          5.3580     3.9700   -41.5870 ca         1 YEE      -0.241600
     28 F30          4.0210     3.8850   -39.6820 f          1 YEE      -0.169000
     29 N08          1.2230     0.9280   -45.3950 nb         1 YEE      -0.663000
     30 N15         -5.4690     4.9370   -45.1330 nh         1 YEE      -0.789400
     31 N18         -7.8540     6.5770   -45.5060 n3         1 YEE      -0.710600
     32 N33          6.5780     5.6990   -40.4830 nt         1 YEE      -0.599000
     33 O34          7.3580     3.5790   -40.3650 o          1 YEE      -0.581100
     34 H162        -5.4300     6.0540   -46.9350 h1         1 YEE       0.042200
     35 H161        -5.8390     4.3510   -47.1010 h1         1 YEE       0.042200
     36 H013         7.9490     4.1410   -45.0450 h1         1 YEE       0.046700
     37 H012         6.7550     2.8360   -45.1740 h1         1 YEE       0.046700
     38 H011         6.2650     4.5240   -45.4480 h1         1 YEE       0.046700
     39 H041         4.4770     3.1930   -44.7800 ha         1 YEE       0.130000
     40 H071         3.1290     0.9250   -44.6280 h4         1 YEE       0.023100
     41 H091        -0.7290     1.0930   -46.0040 h4         1 YEE       0.024100
     42 H121        -1.9440     3.4110   -42.6870 ha         1 YEE       0.112000
     43 H131        -4.1420     4.3490   -42.8640 ha         1 YEE       0.114000
     44 H171        -7.8060     5.7530   -47.4440 h1         1 YEE       0.061700
     45 H172        -8.0030     4.6150   -46.1320 h1         1 YEE       0.061700
     46 H191        -6.3240     8.0080   -45.9320 h1         1 YEE       0.020700
     47 H201        -7.5080     7.7070   -48.0760 hc         1 YEE       0.038700
     48 H203        -9.0400     8.1560   -47.3160 hc         1 YEE       0.038700
     49 H202        -7.7400     9.3380   -47.4860 hc         1 YEE       0.038700
     50 H212        -7.4360     8.8690   -43.9070 hc         1 YEE       0.038700
     51 H213        -7.7040     9.9630   -45.2460 hc         1 YEE       0.038700
     52 H211        -8.9960     8.8710   -44.7380 hc         1 YEE       0.038700
     53 H221        -7.6740     6.8720   -43.4290 h1         1 YEE       0.061700
     54 H222        -7.9470     5.2250   -43.9470 h1         1 YEE       0.061700
     55 H231        -5.3400     6.8060   -44.1530 h1         1 YEE       0.042200
     56 H232        -5.7300     5.4470   -43.1130 h1         1 YEE       0.042200
     57 H241        -3.7860     4.3070   -47.1590 ha         1 YEE       0.114000
     58 H251        -1.5910     3.3510   -46.9480 ha         1 YEE       0.112000
     59 H272         0.2530     4.4670   -42.2030 hc         1 YEE       0.051700
     60 H273         1.5500     5.1500   -43.1660 hc         1 YEE       0.051700
     61 H271        -0.1150     5.2190   -43.7430 hc         1 YEE       0.051700
     62 H281         2.1030     3.0710   -41.2100 ha         1 YEE       0.141000
     63 H332         7.3270     6.0850   -39.9290 hn         1 YEE       0.315500
     64 H331         5.8870     6.3360   -40.8400 hn         1 YEE       0.315500
     65 O02          6.7000     4.0350   -43.4690 os         1 YEE      -0.328100
@<TRIPOS>BOND
     1     1    14 ar  
     2     1    21 ar  
     3     1    30 1   
     4     2    15 1   
     5     2    30 1   
     6     2    34 1   
     7     2    35 1   
     8     3    27 1   
     9     3    32 1   
    10     3    33 2   
    11     4    36 1   
    12     4    37 1   
    13     4    38 1   
    14     4    65 1   
    15     5     6 ar  
    16     5    27 ar  
    17     5    65 1   
    18     6     7 ar  
    19     6    39 1   
    20     7     8 1   
    21     7    25 ar  
    22     8     9 ar  
    23     8    23 ar  
    24     9    29 ar  
    25     9    40 1   
    26    10    11 ar  
    27    10    29 ar  
    28    10    41 1   
    29    11    12 1   
    30    11    23 ar  
    31    12    13 ar  
    32    12    22 ar  
    33    13    14 ar  
    34    13    42 1   
    35    14    43 1   
    36    15    31 1   
    37    15    44 1   
    38    15    45 1   
    39    16    17 1   
    40    16    18 1   
    41    16    31 1   
    42    16    46 1   
    43    17    47 1   
    44    17    48 1   
    45    17    49 1   
    46    18    50 1   
    47    18    51 1   
    48    18    52 1   
    49    19    20 1   
    50    19    31 1   
    51    19    53 1   
    52    19    54 1   
    53    20    30 1   
    54    20    55 1   
    55    20    56 1   
    56    21    22 ar  
    57    21    57 1   
    58    22    58 1   
    59    23    24 1   
    60    24    59 1   
    61    24    60 1   
    62    24    61 1   
    63    25    26 ar  
    64    25    62 1   
    65    26    27 ar  
    66    26    28 1   
    67    32    63 1   
    68    32    64 1   
@<TRIPOS>SUBSTRUCTURE
     1 YEE         1 TEMP              0 ****  ****    0 ROOT
