@<TRIPOS>MOLECULE
YEF
   32    33     1     0     0
SMALL
No Charge or Current Charge


@<TRIPOS>ATOM
      1 C10          0.9670     1.8880   -31.0160 c3         1 YEF       0.155900
      2 C13          0.2820     8.9980   -33.3370 c6         1 YEF      -0.076900
      3 C17          2.2870     8.9950   -31.8570 c6         1 YEF      -0.076900
      4 C02         -0.0200     9.2410   -30.7690 c          1 YEF       0.720000
      5 C04          0.7820     8.5300   -31.9180 c6         1 YEF      -0.140700
      6 C05          0.6010     6.9890   -31.7590 ca         1 YEF      -0.030300
      7 C06         -0.6720     6.4100   -31.9700 ca         1 YEF      -0.077000
      8 C07         -0.8710     5.0260   -31.8370 ca         1 YEF      -0.172500
      9 C08          0.1940     4.1840   -31.4870 ca         1 YEF       0.092100
     10 C11          1.4680     4.7430   -31.2640 ca         1 YEF      -0.172500
     11 C12          1.6680     6.1290   -31.3970 ca         1 YEF      -0.077000
     12 C14          0.5150    10.5130   -33.5800 c6         1 YEF       0.158600
     13 C16          2.4460    10.5120   -32.1370 c6         1 YEF       0.158600
     14 O01         -1.2160     9.4290   -30.9490 o          1 YEF      -0.719500
     15 O03          0.4210     9.1200   -29.6340 o          1 YEF      -0.719500
     16 O09         -0.0590     2.8330   -31.3710 os         1 YEF      -0.364100
     17 O15          1.9160    10.8240   -33.4410 os         1 YEF      -0.493000
     18 H102         0.5530     0.8730   -30.9810 h1         1 YEF       0.029033
     19 H101         1.7790     1.9000   -31.7540 h1         1 YEF       0.029033
     20 H103         1.3840     2.1200   -30.0280 h1         1 YEF       0.029033
     21 H131         0.8030     8.4280   -34.1190 hc         1 YEF       0.036950
     22 H132        -0.7850     8.7830   -33.4760 hc         1 YEF       0.036950
     23 H171         2.8840     8.4400   -32.5940 hc         1 YEF       0.036950
     24 H172         2.7260     8.7730   -30.8750 hc         1 YEF       0.036950
     25 H061        -1.5220     7.0340   -32.2320 ha         1 YEF       0.119000
     26 H071        -1.8580     4.6040   -32.0050 ha         1 YEF       0.101500
     27 H111         2.3150     4.1220   -30.9870 ha         1 YEF       0.101500
     28 H121         2.6650     6.5150   -31.2110 ha         1 YEF       0.119000
     29 H141         0.1910    10.7820   -34.5950 h1         1 YEF       0.039700
     30 H142        -0.0650    11.1160   -32.8670 h1         1 YEF       0.039700
     31 H161         3.5100    10.7870   -32.1100 h1         1 YEF       0.039700
     32 H162         1.9210    11.1070   -31.3750 h1         1 YEF       0.039700
@<TRIPOS>BOND
     1     1    16 1   
     2     1    18 1   
     3     1    19 1   
     4     1    20 1   
     5     2     5 1   
     6     2    12 1   
     7     2    21 1   
     8     2    22 1   
     9     3     5 1   
    10     3    13 1   
    11     3    23 1   
    12     3    24 1   
    13     4     5 1   
    14     4    14 1   
    15     4    15 1   
    16     5     6 1   
    17     6     7 ar  
    18     6    11 ar  
    19     7     8 ar  
    20     7    25 1   
    21     8     9 ar  
    22     8    26 1   
    23     9    10 ar  
    24     9    16 1   
    25    10    11 ar  
    26    10    27 1   
    27    11    28 1   
    28    12    17 1   
    29    12    29 1   
    30    12    30 1   
    31    13    17 1   
    32    13    31 1   
    33    13    32 1   
@<TRIPOS>SUBSTRUCTURE
     1 YEF         1 TEMP              0 ****  ****    0 ROOT
