@<TRIPOS>MOLECULE
YEF
   32    33     1     0     0
SMALL
abcg2


@<TRIPOS>ATOM
      1 C10          0.9800     2.0020   -30.9820 c3         1 YEF       0.155900
      2 C13          0.2170     9.0030   -33.2770 c6         1 YEF      -0.076900
      3 C17          2.2620     8.9300   -31.8800 c6         1 YEF      -0.076900
      4 C02         -0.0100     9.1080   -30.7080 c          1 YEF       0.720000
      5 C04          0.7850     8.5050   -31.9320 c6         1 YEF      -0.140700
      6 C05          0.6170     6.9920   -31.8120 ca         1 YEF      -0.030300
      7 C06         -0.6170     6.3910   -32.1000 ca         1 YEF      -0.077000
      8 C07         -0.8150     5.0280   -31.9650 ca         1 YEF      -0.172500
      9 C08          0.2270     4.2050   -31.5310 ca         1 YEF       0.092100
     10 C11          1.4620     4.7750   -31.2350 ca         1 YEF      -0.172500
     11 C12          1.6390     6.1520   -31.3770 ca         1 YEF      -0.077000
     12 C14          0.5050    10.4780   -33.5140 c6         1 YEF       0.158600
     13 C16          2.4350    10.4120   -32.1720 c6         1 YEF       0.158600
     14 O01         -1.2090     9.4270   -30.8990 o          1 YEF      -0.719500
     15 O03          0.6050     9.1770   -29.6160 o          1 YEF      -0.719500
     16 O09         -0.0550     2.8730   -31.4290 os         1 YEF      -0.364100
     17 O15          1.9010    10.7710   -33.4470 os         1 YEF      -0.493000
     18 H102         0.5470     1.0040   -30.9680 h1         1 YEF       0.029033
     19 H101         1.8340     2.0210   -31.6640 h1         1 YEF       0.029033
     20 H103         1.3140     2.2700   -29.9760 h1         1 YEF       0.029033
     21 H131         0.6680     8.4190   -34.0860 hc         1 YEF       0.036950
     22 H132        -0.8600     8.8530   -33.3170 hc         1 YEF       0.036950
     23 H171         2.8280     8.3600   -32.6240 hc         1 YEF       0.036950
     24 H172         2.6860     8.7170   -30.9010 hc         1 YEF       0.036950
     25 H061        -1.4480     7.0040   -32.4240 ha         1 YEF       0.119000
     26 H071        -1.7760     4.5830   -32.1920 ha         1 YEF       0.101500
     27 H111         2.2890     4.1690   -30.8960 ha         1 YEF       0.101500
     28 H121         2.6110     6.5600   -31.1350 ha         1 YEF       0.119000
     29 H141         0.1780    10.7790   -34.5100 h1         1 YEF       0.039700
     30 H142        -0.0290    11.0890   -32.7750 h1         1 YEF       0.039700
     31 H161         3.4920    10.6800   -32.1970 h1         1 YEF       0.039700
     32 H162         1.9470    11.0120   -31.3920 h1         1 YEF       0.039700
@<TRIPOS>BOND
     1     1    16 1   
     2     1    18 1   
     3     1    19 1   
     4     1    20 1   
     5     2     5 1   
     6     2    12 1   
     7     2    21 1   
     8     2    22 1   
     9     3     5 1   
    10     3    13 1   
    11     3    23 1   
    12     3    24 1   
    13     4     5 1   
    14     4    14 1   
    15     4    15 1   
    16     5     6 1   
    17     6     7 ar  
    18     6    11 ar  
    19     7     8 ar  
    20     7    25 1   
    21     8     9 ar  
    22     8    26 1   
    23     9    10 ar  
    24     9    16 1   
    25    10    11 ar  
    26    10    27 1   
    27    11    28 1   
    28    12    17 1   
    29    12    29 1   
    30    12    30 1   
    31    13    17 1   
    32    13    31 1   
    33    13    32 1   
@<TRIPOS>SUBSTRUCTURE
     1 YEF         1 TEMP              0 ****  ****    0 ROOT
