@<TRIPOS>MOLECULE
YEG
   16    16     1     0     0
SMALL
abcg2


@<TRIPOS>ATOM
      1 C01          1.4970     0.7700     0.0510 c5         1 YEG      -0.077900
      2 C02          1.5340    -0.7730    -0.0560 c5         1 YEG      -0.077900
      3 C03          0.0640    -1.2310    -0.0760 c5         1 YEG      -0.098400
      4 C04         -0.7330    -0.0100     0.3750 c5         1 YEG       0.163300
      5 C05          0.0460     1.1510    -0.2370 c5         1 YEG      -0.098400
      6 O06         -2.0790    -0.1180    -0.0270 oh         1 YEG      -0.654000
      7 H01          1.7660     1.0820     1.0630 hc         1 YEG       0.042200
      8 H01A         2.2010     1.2550    -0.6240 hc         1 YEG       0.042200
      9 H02          2.0530    -1.0980    -0.9580 hc         1 YEG       0.042200
     10 H02A         2.0750    -1.2070     0.7860 hc         1 YEG       0.042200
     11 H03         -0.2430    -1.4880    -1.0930 hc         1 YEG       0.051700
     12 H03A        -0.1180    -2.1070     0.5500 hc         1 YEG       0.051700
     13 H04         -0.6620     0.0740     1.4710 h1         1 YEG       0.027700
     14 H05         -0.2340     2.1230     0.1750 hc         1 YEG       0.051700
     15 H05A        -0.1410     1.1800    -1.3150 hc         1 YEG       0.051700
     16 HO06        -2.5590     0.6370     0.3260 ho         1 YEG       0.442000
@<TRIPOS>BOND
     1     1     2 1   
     2     1     5 1   
     3     1     7 1   
     4     1     8 1   
     5     2     3 1   
     6     2     9 1   
     7     2    10 1   
     8     3     4 1   
     9     3    11 1   
    10     3    12 1   
    11     4     5 1   
    12     4     6 1   
    13     4    13 1   
    14     5    14 1   
    15     5    15 1   
    16     6    16 1   
@<TRIPOS>SUBSTRUCTURE
     1 YEG         1 TEMP              0 ****  ****    0 ROOT
