@<TRIPOS>MOLECULE
YEG
   16    16     1     0     0
SMALL
No Charge or Current Charge


@<TRIPOS>ATOM
      1 C01          1.4980     0.7790    -0.0010 c5         1 YEG      -0.077900
      2 C02          1.5390    -0.7840     0.0420 c5         1 YEG      -0.077900
      3 C03          0.0660    -1.2260    -0.1940 c5         1 YEG      -0.098400
      4 C04         -0.7240    -0.0500     0.4240 c5         1 YEG       0.163300
      5 C05          0.0040     1.1290    -0.2610 c5         1 YEG      -0.098400
      6 O06         -2.1060    -0.0980     0.0870 oh         1 YEG      -0.654000
      7 H01          1.8400     1.1990     0.9520 hc         1 YEG       0.042200
      8 H01A         2.1500     1.1890    -0.7810 hc         1 YEG       0.042200
      9 H02          2.2120    -1.2010    -0.7170 hc         1 YEG       0.042200
     10 H02A         1.9030    -1.1330     1.0150 hc         1 YEG       0.042200
     11 H03         -0.1500    -1.3410    -1.2630 hc         1 YEG       0.051700
     12 H03A        -0.1630    -2.1830     0.2890 hc         1 YEG       0.051700
     13 H04         -0.5950    -0.0170     1.5160 h1         1 YEG       0.027700
     14 H05         -0.2730     2.1000     0.1660 hc         1 YEG       0.051700
     15 H05A        -0.2140     1.1710    -1.3360 hc         1 YEG       0.051700
     16 HO06        -2.5190     0.7050     0.4740 ho         1 YEG       0.442000
@<TRIPOS>BOND
     1     1     2 1   
     2     1     5 1   
     3     1     7 1   
     4     1     8 1   
     5     2     3 1   
     6     2     9 1   
     7     2    10 1   
     8     3     4 1   
     9     3    11 1   
    10     3    12 1   
    11     4     5 1   
    12     4     6 1   
    13     4    13 1   
    14     5    14 1   
    15     5    15 1   
    16     6    16 1   
@<TRIPOS>SUBSTRUCTURE
     1 YEG         1 TEMP              0 ****  ****    0 ROOT
