@<TRIPOS>MOLECULE
YEJ
   57    60     1     0     0
SMALL
No Charge or Current Charge


@<TRIPOS>ATOM
      1 O3           1.2840    -2.0210     3.1310 o          1 YEJ      -0.548000
      2 C19          1.5920    -1.9070     1.9540 c          1 YEJ       0.549200
      3 C1           1.6190    -3.0330     0.9690 cc         1 YEJ      -0.160400
      4 C            1.2290    -4.3880     1.5110 c3         1 YEJ      -0.042900
      5 N3           1.9410    -0.6810     1.4360 ns         1 YEJ      -0.367100
      6 C18          2.3090    -0.3890     0.0950 ca         1 YEJ      -0.005400
      7 C3           2.3210    -1.4550    -0.8150 ca         1 YEJ      -0.064800
      8 C2           1.9710    -2.7990    -0.3500 cd         1 YEJ      -0.110200
      9 C6           2.6230     0.9120    -0.3840 ca         1 YEJ       0.587900
     10 N            2.9330     1.1800    -1.6620 nb         1 YEJ      -0.724000
     11 C5           2.9400     0.1420    -2.5300 ca         1 YEJ       0.346900
     12 C4           2.6460    -1.1810    -2.1530 ca         1 YEJ      -0.160000
     13 N1           2.6660     2.0280     0.4350 nu         1 YEJ      -0.926100
     14 C7           1.8170     3.2240     0.2040 c6         1 YEJ       0.227500
     15 C11          0.3520     3.0210     0.7260 c6         1 YEJ       0.168300
     16 C10         -0.4420     4.3620     0.6120 c6         1 YEJ       0.132800
     17 N2           0.2610     5.5030     1.2600 n7         1 YEJ      -0.867400
     18 C9           1.6280     5.7100     0.7330 c6         1 YEJ       0.160800
     19 C8           2.4810     4.4340     0.9050 c6         1 YEJ      -0.101400
     20 O           -0.3180     1.9530     0.0050 os         1 YEJ      -0.456000
     21 C12         -1.5400     1.4450     0.5730 c3         1 YEJ       0.172600
     22 C13         -2.1430     0.3500    -0.3590 c6         1 YEJ      -0.077700
     23 C17         -3.4670    -0.1950     0.2500 c6         1 YEJ      -0.056400
     24 C16         -4.1780    -1.2220    -0.6720 c6         1 YEJ      -0.296900
     25 S           -3.1680    -2.6890    -1.0140 s6         1 YEJ       1.076000
     26 O1          -3.7800    -3.4420    -2.1160 o          1 YEJ      -0.516000
     27 O2          -2.8580    -3.3620     0.2540 o          1 YEJ      -0.516000
     28 C15         -1.6720    -1.8670    -1.6230 c6         1 YEJ      -0.296900
     29 C14         -1.1250    -0.7930    -0.6470 c6         1 YEJ      -0.056400
     30 H3           1.8800     0.0930     2.0830 hn         1 YEJ       0.328500
     31 HC1          1.8870    -4.6860     2.3370 hc         1 YEJ       0.053033
     32 HC2          0.1980    -4.3790     1.8850 hc         1 YEJ       0.053033
     33 HC3          1.2950    -5.1640     0.7390 hc         1 YEJ       0.053033
     34 H2           1.9810    -3.6270    -1.0550 ha         1 YEJ       0.191000
     35 H4           2.6640    -1.9710    -2.8980 ha         1 YEJ       0.128000
     36 H1           2.8990     1.8160     1.4000 hn         1 YEJ       0.473000
     37 H5           3.1920     0.3780    -3.5630 h4         1 YEJ       0.021100
     38 H7           1.7650     3.4550    -0.8720 h1         1 YEJ       0.092700
     39 H11          0.4060     2.7400     1.7870 h1         1 YEJ       0.045700
     40 H81C         2.6140     4.2280     1.9760 hc         1 YEJ       0.057700
     41 H82C         3.4820     4.6060     0.4880 hc         1 YEJ       0.057700
     42 H101        -0.6040     4.5930    -0.4510 h1         1 YEJ       0.041200
     43 H102        -1.4310     4.2470     1.0790 h1         1 YEJ       0.041200
     44 HA          -0.2870     6.3630     1.1150 hn         1 YEJ       0.419000
     45 H91C         1.5770     5.9790    -0.3330 h1         1 YEJ       0.036700
     46 H92C         2.1050     6.5470     1.2650 h1         1 YEJ       0.036700
     47 H121        -1.3480     1.0080     1.5610 h1         1 YEJ       0.028200
     48 H122        -2.2800     2.2460     0.6900 h1         1 YEJ       0.028200
     49 H13         -2.3770     0.8560    -1.3060 hc         1 YEJ       0.065700
     50 H171        -3.2670    -0.6520     1.2310 hc         1 YEJ       0.064700
     51 H172        -4.1530     0.6420     0.4430 hc         1 YEJ       0.064700
     52 H141        -0.2170    -0.3650    -1.0910 hc         1 YEJ       0.064700
     53 H142        -0.8160    -1.2650     0.2960 hc         1 YEJ       0.064700
     54 H161        -5.1030    -1.5950    -0.2150 h1         1 YEJ       0.104200
     55 H162        -4.4110    -0.7820    -1.6490 h1         1 YEJ       0.104200
     56 H151        -0.9370    -2.6640    -1.7900 h1         1 YEJ       0.104200
     57 H152        -1.9450    -1.4210    -2.5870 h1         1 YEJ       0.104200
@<TRIPOS>BOND
     1     1     2 2   
     2     2     3 1   
     3     2     5 1   
     4     3     4 1   
     5     3     8 2   
     6     4    31 1   
     7     4    32 1   
     8     4    33 1   
     9     5     6 1   
    10     5    30 1   
    11     6     7 ar  
    12     6     9 ar  
    13     7     8 1   
    14     7    12 ar  
    15     8    34 1   
    16     9    10 ar  
    17     9    13 1   
    18    10    11 ar  
    19    11    12 ar  
    20    11    37 1   
    21    12    35 1   
    22    13    14 1   
    23    13    36 1   
    24    14    15 1   
    25    14    19 1   
    26    14    38 1   
    27    15    16 1   
    28    15    20 1   
    29    15    39 1   
    30    16    17 1   
    31    16    42 1   
    32    16    43 1   
    33    17    18 1   
    34    17    44 1   
    35    18    19 1   
    36    18    45 1   
    37    18    46 1   
    38    19    40 1   
    39    19    41 1   
    40    20    21 1   
    41    21    22 1   
    42    21    47 1   
    43    21    48 1   
    44    22    23 1   
    45    22    29 1   
    46    22    49 1   
    47    23    24 1   
    48    23    50 1   
    49    23    51 1   
    50    24    25 1   
    51    24    54 1   
    52    24    55 1   
    53    25    26 2   
    54    25    27 2   
    55    25    28 1   
    56    28    29 1   
    57    28    56 1   
    58    28    57 1   
    59    29    52 1   
    60    29    53 1   
@<TRIPOS>SUBSTRUCTURE
     1 YEJ         1 TEMP              0 ****  ****    0 ROOT
