@<TRIPOS>MOLECULE
YEJ
   57    60     1     0     0
SMALL
bcc


@<TRIPOS>ATOM
      1 O3           0.8090    -3.1830     1.6940 o          1 YEJ      -0.623500
      2 C19          1.6200    -2.6960     0.9160 c          1 YEJ       0.691700
      3 C1           2.6000    -3.4840     0.1650 cc         1 YEJ      -0.160400
      4 C            2.6160    -4.9540     0.4160 c3         1 YEJ      -0.042900
      5 N3           1.6550    -1.3470     0.6910 ns         1 YEJ      -0.434100
      6 C18          2.4820    -0.7070    -0.1980 ca         1 YEJ      -0.070700
      7 C3           3.3740    -1.4580    -0.9490 ca         1 YEJ      -0.064800
      8 C2           3.4150    -2.8730    -0.7200 cd         1 YEJ      -0.060200
      9 C6           2.4200     0.7000    -0.3960 ca         1 YEJ       0.653200
     10 N            3.1420     1.2820    -1.3310 nb         1 YEJ      -0.724000
     11 C5           3.9770     0.5470    -2.0790 ca         1 YEJ       0.412200
     12 C4           4.1550    -0.8010    -1.9170 ca         1 YEJ      -0.243300
     13 N1           1.5500     1.4440     0.3490 nu         1 YEJ      -0.870900
     14 C7           1.2880     2.8380     0.0680 c6         1 YEJ       0.227500
     15 C11         -0.1320     3.1900     0.5090 c6         1 YEJ       0.145100
     16 C10         -0.4080     4.6680     0.2380 c6         1 YEJ       0.132800
     17 N2           0.5650     5.4860     0.9350 n7         1 YEJ      -0.812200
     18 C9           1.9130     5.2370     0.4560 c6         1 YEJ       0.160800
     19 C8           2.2880     3.7880     0.7260 c6         1 YEJ      -0.101400
     20 O           -1.0290     2.3630    -0.1870 os         1 YEJ      -0.409600
     21 C12         -2.2210     2.0320     0.4820 c3         1 YEJ       0.149400
     22 C13         -2.7700     0.7320    -0.0880 c6         1 YEJ      -0.077700
     23 C17         -4.1180     0.4210     0.5660 c6         1 YEJ      -0.056400
     24 C16         -4.7860    -0.8180    -0.0140 c6         1 YEJ      -0.186100
     25 S           -3.7630    -2.2630     0.2270 s6         1 YEJ       0.996000
     26 O1          -4.3140    -3.3900    -0.5270 o          1 YEJ      -0.586800
     27 O2          -3.5470    -2.4420     1.6660 o          1 YEJ      -0.586800
     28 C15         -2.2260    -1.7290    -0.5110 c6         1 YEJ      -0.186100
     29 C14         -1.7650    -0.4080     0.0920 c6         1 YEJ      -0.056400
     30 H3           0.9550    -0.8100     1.1850 hn         1 YEJ       0.328500
     31 HC1          2.8170    -5.1720     1.4660 hc         1 YEJ       0.053033
     32 HC2          1.6530    -5.4070     0.1760 hc         1 YEJ       0.053033
     33 HC3          3.3800    -5.4430    -0.1850 hc         1 YEJ       0.053033
     34 H2           4.1270    -3.4600    -1.2900 ha         1 YEJ       0.141000
     35 H4           4.8590    -1.3530    -2.5240 ha         1 YEJ       0.146000
     36 H1           1.4350     1.1810     1.3170 hn         1 YEJ       0.417800
     37 H5           4.5330     1.0890    -2.8340 h4         1 YEJ       0.021100
     38 H7           1.3500     2.9640    -1.0170 h1         1 YEJ       0.092700
     39 H11         -0.2130     3.0190     1.5950 h1         1 YEJ       0.045700
     40 H81C         2.3040     3.6110     1.8060 hc         1 YEJ       0.057700
     41 H82C         3.2890     3.5800     0.3450 hc         1 YEJ       0.057700
     42 H101        -0.4010     4.8250    -0.8540 h1         1 YEJ       0.041200
     43 H102        -1.4080     4.9270     0.5950 h1         1 YEJ       0.041200
     44 HA           0.3320     6.4630     0.8180 hn         1 YEJ       0.363800
     45 H91C         2.0220     5.4380    -0.6230 h1         1 YEJ       0.036700
     46 H92C         2.6030     5.9040     0.9740 h1         1 YEJ       0.036700
     47 H121        -2.0380     1.9060     1.5590 h1         1 YEJ       0.028200
     48 H122        -2.9730     2.8250     0.3760 h1         1 YEJ       0.028200
     49 H13         -2.9430     0.8760    -1.1620 hc         1 YEJ       0.065700
     50 H171        -3.9990     0.3010     1.6460 hc         1 YEJ       0.064700
     51 H172        -4.8030     1.2600     0.4210 hc         1 YEJ       0.064700
     52 H141        -0.8240    -0.1400    -0.3880 hc         1 YEJ       0.064700
     53 H142        -1.5560    -0.5490     1.1560 hc         1 YEJ       0.064700
     54 H161        -5.7410    -1.0380     0.4660 h1         1 YEJ       0.104200
     55 H162        -4.9520    -0.7250    -1.0890 h1         1 YEJ       0.104200
     56 H151        -1.5080    -2.5330    -0.3360 h1         1 YEJ       0.104200
     57 H152        -2.4000    -1.6480    -1.5850 h1         1 YEJ       0.104200
@<TRIPOS>BOND
     1     1     2 2   
     2     2     3 1   
     3     2     5 1   
     4     3     4 1   
     5     3     8 2   
     6     4    31 1   
     7     4    32 1   
     8     4    33 1   
     9     5     6 1   
    10     5    30 1   
    11     6     7 ar  
    12     6     9 ar  
    13     7     8 1   
    14     7    12 ar  
    15     8    34 1   
    16     9    10 ar  
    17     9    13 1   
    18    10    11 ar  
    19    11    12 ar  
    20    11    37 1   
    21    12    35 1   
    22    13    14 1   
    23    13    36 1   
    24    14    15 1   
    25    14    19 1   
    26    14    38 1   
    27    15    16 1   
    28    15    20 1   
    29    15    39 1   
    30    16    17 1   
    31    16    42 1   
    32    16    43 1   
    33    17    18 1   
    34    17    44 1   
    35    18    19 1   
    36    18    45 1   
    37    18    46 1   
    38    19    40 1   
    39    19    41 1   
    40    20    21 1   
    41    21    22 1   
    42    21    47 1   
    43    21    48 1   
    44    22    23 1   
    45    22    29 1   
    46    22    49 1   
    47    23    24 1   
    48    23    50 1   
    49    23    51 1   
    50    24    25 1   
    51    24    54 1   
    52    24    55 1   
    53    25    26 2   
    54    25    27 2   
    55    25    28 1   
    56    28    29 1   
    57    28    56 1   
    58    28    57 1   
    59    29    52 1   
    60    29    53 1   
@<TRIPOS>SUBSTRUCTURE
     1 YEJ         1 TEMP              0 ****  ****    0 ROOT
