@<TRIPOS>MOLECULE
YEM
   59    62     1     0     0
SMALL
No Charge or Current Charge


@<TRIPOS>ATOM
      1 O1          76.5610    32.6550    -1.4470 o          1 YEM      -0.555100
      2 C18         76.5410    31.7700    -0.5990 c          1 YEM       0.610100
      3 C19         77.6610    30.8970     0.1140 cy         1 YEM      -0.191700
      4 C21         78.8640    31.1830    -0.8570 cy         1 YEM       0.159300
      5 N4          78.2560    30.1890    -1.8030 nq         1 YEM      -0.696600
      6 C22         79.0780    29.3880    -2.7130 c3         1 YEM       0.148100
      7 C20         77.4350    29.5740    -0.7110 cy         1 YEM       0.159300
      8 N3          75.3290    31.4780     0.0000 ns         1 YEM      -0.532900
      9 C13         74.0370    32.0940    -0.3590 c3         1 YEM       0.089400
     10 C14         72.8830    31.1630     0.0900 c3         1 YEM      -0.085400
     11 C15         71.4820    31.6190    -0.3810 c3         1 YEM      -0.075400
     12 C16         70.3610    30.6430     0.0350 c3         1 YEM      -0.074400
     13 C17         68.9630    31.0960    -0.4290 c3         1 YEM      -0.088100
     14 C11         73.8900    33.5140     0.1670 cc         1 YEM       0.407800
     15 N1          74.1590    33.8810     1.4640 na         1 YEM      -0.289500
     16 N2          73.4630    34.5570    -0.5370 nd         1 YEM      -0.668000
     17 C12         73.4690    35.6360     0.3290 cd         1 YEM       0.286900
     18 C10         73.9250    35.2330     1.5610 cc         1 YEM      -0.156000
     19 C7          73.9930    36.0880     2.7580 ca         1 YEM      -0.042000
     20 C6          73.8000    35.4990     4.0220 ca         1 YEM      -0.063000
     21 C4          73.8590    36.3060     5.1690 ca         1 YEM      -0.108000
     22 C5          73.6600    35.7370     6.4420 ca         1 YEM      -0.081000
     23 C           73.7170    36.5440     7.5890 ca         1 YEM      -0.120000
     24 C8          74.2560    37.4870     2.7120 ca         1 YEM       0.618300
     25 O           74.4990    38.0830     1.4910 os         1 YEM      -0.453300
     26 C9          74.7720    39.4930     1.3790 c3         1 YEM       0.157900
     27 N           74.3130    38.2610     3.8240 nb         1 YEM      -0.767000
     28 C3          74.1170    37.6910     5.0320 ca         1 YEM       0.317000
     29 C2          74.1700    38.4840     6.1930 ca         1 YEM      -0.094000
     30 C1          73.9720    37.9190     7.4660 ca         1 YEM      -0.093000
     31 H1          77.7450    30.9240     1.2040 hc         1 YEM       0.068700
     32 H2          79.8220    30.8610    -0.4310 h1         1 YEM       0.054950
     33 H3          78.9710    32.2120    -1.2230 h1         1 YEM       0.054950
     34 H5          78.4370    28.7070    -3.2890 h1         1 YEM       0.033700
     35 H6          79.6140    30.0480    -3.4070 h1         1 YEM       0.033700
     36 H7          79.8070    28.7990    -2.1410 h1         1 YEM       0.033700
     37 H8          76.4000    29.3200    -0.9730 h1         1 YEM       0.054950
     38 H9          77.9060    28.7040    -0.2360 h1         1 YEM       0.054950
     39 H10         75.3410    30.7670     0.7220 hn         1 YEM       0.311500
     40 H11         73.9960    32.1540    -1.4560 h1         1 YEM       0.097700
     41 H12         73.0720    30.1550    -0.3020 hc         1 YEM       0.039200
     42 H13         72.8880    31.0830     1.1840 hc         1 YEM       0.039200
     43 H14         71.2600    32.6100     0.0350 hc         1 YEM       0.055700
     44 H15         71.4840    31.7230    -1.4730 hc         1 YEM       0.055700
     45 H16         70.5690    29.6500    -0.3830 hc         1 YEM       0.033200
     46 H17         70.3560    30.5370     1.1270 hc         1 YEM       0.033200
     47 H18         68.2020    30.3740    -0.1120 hc         1 YEM       0.034367
     48 H19         68.7090    32.0730     0.0010 hc         1 YEM       0.034367
     49 H20         68.9240    31.1780    -1.5220 hc         1 YEM       0.034367
     50 H21         74.4860    33.2590     2.1920 hn         1 YEM       0.347000
     51 H23         73.1290    36.6150     0.0140 h4         1 YEM       0.048100
     52 H24         73.5950    34.4360     4.1110 ha         1 YEM       0.110000
     53 H25         73.4620    34.6720     6.5440 ha         1 YEM       0.111000
     54 H26         73.5630    36.1050     8.5730 ha         1 YEM       0.115000
     55 H27         74.9320    39.7680     0.3290 h1         1 YEM       0.048700
     56 H28         73.9310    40.0870     1.7600 h1         1 YEM       0.048700
     57 H29         75.6750    39.7650     1.9410 h1         1 YEM       0.048700
     58 H30         74.3680    39.5490     6.1030 ha         1 YEM       0.130000
     59 H31         74.0170    38.5470     8.3530 ha         1 YEM       0.116000
@<TRIPOS>BOND
     1     1     2 2   
     2     2     3 1   
     3     2     8 1   
     4     3     4 1   
     5     3     7 1   
     6     3    31 1   
     7     4     5 1   
     8     4    32 1   
     9     4    33 1   
    10     5     6 1   
    11     5     7 1   
    12     6    34 1   
    13     6    35 1   
    14     6    36 1   
    15     7    37 1   
    16     7    38 1   
    17     8     9 1   
    18     8    39 1   
    19     9    10 1   
    20     9    14 1   
    21     9    40 1   
    22    10    11 1   
    23    10    41 1   
    24    10    42 1   
    25    11    12 1   
    26    11    43 1   
    27    11    44 1   
    28    12    13 1   
    29    12    45 1   
    30    12    46 1   
    31    13    47 1   
    32    13    48 1   
    33    13    49 1   
    34    14    15 1   
    35    14    16 2   
    36    15    18 1   
    37    15    50 1   
    38    16    17 1   
    39    17    18 2   
    40    17    51 1   
    41    18    19 1   
    42    19    20 ar  
    43    19    24 ar  
    44    20    21 ar  
    45    20    52 1   
    46    21    22 ar  
    47    21    28 ar  
    48    22    23 ar  
    49    22    53 1   
    50    23    30 ar  
    51    23    54 1   
    52    24    25 1   
    53    24    27 ar  
    54    25    26 1   
    55    26    55 1   
    56    26    56 1   
    57    26    57 1   
    58    27    28 ar  
    59    28    29 ar  
    60    29    30 ar  
    61    29    58 1   
    62    30    59 1   
@<TRIPOS>SUBSTRUCTURE
     1 YEM         1 TEMP              0 ****  ****    0 ROOT
