@<TRIPOS>MOLECULE
YEM
   59    62     1     0     0
SMALL
bcc


@<TRIPOS>ATOM
      1 O1          76.3480    32.8550    -1.1330 o          1 YEM      -0.555100
      2 C18         76.1970    31.8790    -0.4160 c          1 YEM       0.677100
      3 C19         77.3350    31.0300     0.1020 cy         1 YEM      -0.191700
      4 C21         78.7250    31.4270    -0.4020 cy         1 YEM       0.159300
      5 N4          78.6190    30.4090    -1.4500 nq         1 YEM      -0.696600
      6 C22         79.7960    29.6490    -1.7740 c3         1 YEM       0.148100
      7 C20         77.5500    29.7350    -0.7150 cy         1 YEM       0.159300
      8 N3          74.9780    31.4580    -0.0240 ns         1 YEM      -0.599900
      9 C13         73.7480    32.0690    -0.4870 c3         1 YEM       0.089400
     10 C14         72.5680    31.2220     0.0020 c3         1 YEM      -0.085400
     11 C15         71.2120    31.7200    -0.4750 c3         1 YEM      -0.075400
     12 C16         70.0800    30.7890    -0.0590 c3         1 YEM      -0.074400
     13 C17         68.7160    31.2840    -0.5180 c3         1 YEM      -0.088100
     14 C11         73.6450    33.4910    -0.0270 cc         1 YEM       0.407800
     15 N1          73.9740    33.8820     1.2180 na         1 YEM      -0.289900
     16 N2          73.1930    34.4960    -0.7340 nd         1 YEM      -0.668000
     17 C12         73.2440    35.5820     0.0880 cd         1 YEM       0.352200
     18 C10         73.7350    35.2320     1.3250 cc         1 YEM      -0.170600
     19 C7          73.9600    35.9610     2.5630 ca         1 YEM      -0.107300
     20 C6          74.0460    35.3310     3.7760 ca         1 YEM      -0.081000
     21 C4          74.2850    36.0560     4.9650 ca         1 YEM      -0.173300
     22 C5          74.3800    35.4410     6.2310 ca         1 YEM      -0.099000
     23 C           74.6110    36.1980     7.3510 ca         1 YEM      -0.138000
     24 C8          74.1150    37.3910     2.5880 ca         1 YEM       0.683600
     25 O           74.0280    38.0020     1.4120 os         1 YEM      -0.430100
     26 C9          74.1780    39.4150     1.3720 c3         1 YEM       0.134700
     27 N           74.3320    38.0840     3.6580 nb         1 YEM      -0.767000
     28 C3          74.4240    37.4560     4.8570 ca         1 YEM       0.447600
     29 C2          74.6600    38.2140     6.0200 ca         1 YEM      -0.177300
     30 C1          74.7530    37.5940     7.2410 ca         1 YEM      -0.111000
     31 H1          77.2340    30.8850     1.1780 hc         1 YEM       0.068700
     32 H2          79.4950    31.1980     0.3470 h1         1 YEM       0.054950
     33 H3          78.8700    32.4500    -0.7530 h1         1 YEM       0.054950
     34 H5          79.5500    28.8660    -2.4940 h1         1 YEM       0.033700
     35 H6          80.5440    30.2960    -2.2350 h1         1 YEM       0.033700
     36 H7          80.2560    29.1710    -0.8960 h1         1 YEM       0.033700
     37 H8          76.7190    29.3650    -1.3210 h1         1 YEM       0.054950
     38 H9          77.9070    28.9170    -0.0740 h1         1 YEM       0.054950
     39 H10         74.9060    30.6270     0.5440 hn         1 YEM       0.311500
     40 H11         73.7280    32.0920    -1.5810 h1         1 YEM       0.097700
     41 H12         72.7230    30.1990    -0.3550 hc         1 YEM       0.039200
     42 H13         72.5850    31.1790     1.0960 hc         1 YEM       0.039200
     43 H14         71.0180    32.7210    -0.0790 hc         1 YEM       0.055700
     44 H15         71.2210    31.8200    -1.5660 hc         1 YEM       0.055700
     45 H16         70.2630    29.7900    -0.4660 hc         1 YEM       0.033200
     46 H17         70.0840    30.6800     1.0290 hc         1 YEM       0.033200
     47 H18         67.9200    30.6080    -0.2040 hc         1 YEM       0.034367
     48 H19         68.4950    32.2700    -0.1060 hc         1 YEM       0.034367
     49 H20         68.6710    31.3640    -1.6060 hc         1 YEM       0.034367
     50 H21         74.3920    33.2870     1.9170 hn         1 YEM       0.296700
     51 H23         72.9160    36.5500    -0.2480 h4         1 YEM       0.048100
     52 H24         73.9170    34.2580     3.8570 ha         1 YEM       0.128000
     53 H25         74.2690    34.3660     6.3050 ha         1 YEM       0.129000
     54 H26         74.6850    35.7250     8.3210 ha         1 YEM       0.133000
     55 H27         74.0730    39.6940     0.3270 h1         1 YEM       0.048700
     56 H28         73.4100    39.9180     1.9610 h1         1 YEM       0.048700
     57 H29         75.1580    39.7250     1.7350 h1         1 YEM       0.048700
     58 H30         74.7670    39.2880     5.9290 ha         1 YEM       0.148000
     59 H31         74.9360    38.1830     8.1310 ha         1 YEM       0.134000
@<TRIPOS>BOND
     1     1     2 2   
     2     2     3 1   
     3     2     8 1   
     4     3     4 1   
     5     3     7 1   
     6     3    31 1   
     7     4     5 1   
     8     4    32 1   
     9     4    33 1   
    10     5     6 1   
    11     5     7 1   
    12     6    34 1   
    13     6    35 1   
    14     6    36 1   
    15     7    37 1   
    16     7    38 1   
    17     8     9 1   
    18     8    39 1   
    19     9    10 1   
    20     9    14 1   
    21     9    40 1   
    22    10    11 1   
    23    10    41 1   
    24    10    42 1   
    25    11    12 1   
    26    11    43 1   
    27    11    44 1   
    28    12    13 1   
    29    12    45 1   
    30    12    46 1   
    31    13    47 1   
    32    13    48 1   
    33    13    49 1   
    34    14    15 1   
    35    14    16 2   
    36    15    18 1   
    37    15    50 1   
    38    16    17 1   
    39    17    18 2   
    40    17    51 1   
    41    18    19 1   
    42    19    20 ar  
    43    19    24 ar  
    44    20    21 ar  
    45    20    52 1   
    46    21    22 ar  
    47    21    28 ar  
    48    22    23 ar  
    49    22    53 1   
    50    23    30 ar  
    51    23    54 1   
    52    24    25 1   
    53    24    27 ar  
    54    25    26 1   
    55    26    55 1   
    56    26    56 1   
    57    26    57 1   
    58    27    28 ar  
    59    28    29 ar  
    60    29    30 ar  
    61    29    58 1   
    62    30    59 1   
@<TRIPOS>SUBSTRUCTURE
     1 YEM         1 TEMP              0 ****  ****    0 ROOT
