@<TRIPOS>MOLECULE
YEN
   65    65     1     0     0
SMALL
No Charge or Current Charge


@<TRIPOS>ATOM
      1 C1          -3.0820    -0.0040    -1.2610 ca         1 YEN      -0.086500
      2 C2          -4.3530     0.2630    -1.7950 ca         1 YEN      -0.220000
      3 C3          -5.4330     0.5780    -0.9550 ca         1 YEN       0.312100
      4 C4          -5.2270     0.6200     0.4400 ca         1 YEN      -0.220000
      5 C5          -3.9570     0.3510     0.9770 ca         1 YEN      -0.086500
      6 C6          -2.8720     0.0510     0.1310 ca         1 YEN      -0.229300
      7 O1          -6.6450     0.8260    -1.5480 os         1 YEN      -0.420500
      8 P1          -8.0480     1.1970    -0.8440 p5         1 YEN       1.261900
      9 O2          -9.0860     1.3720    -1.9000 o          1 YEN      -0.903167
     10 O3          -8.4710     0.1010     0.0720 o          1 YEN      -0.903167
     11 O4          -7.9200     2.4680    -0.0770 o          1 YEN      -0.903167
     12 C7          -1.4930    -0.2390     0.7320 c3         1 YEN       0.009900
     13 C8          -0.3290     0.5800     0.1060 c3         1 YEN      -0.126700
     14 C9           1.0270     0.1630     0.7190 c          1 YEN       0.620100
     15 O5           1.2800     0.2560     1.9120 o          1 YEN      -0.614100
     16 C10         -0.5430     2.1290     0.1150 c3         1 YEN      -0.149400
     17 C11         -0.9430     2.7150     1.4780 c          1 YEN       0.601100
     18 N1          -2.2860     2.9610     1.6330 ns         1 YEN      -0.506900
     19 C12         -2.8930     3.5230     2.8380 c3         1 YEN       0.103300
     20 O7          -0.1290     3.0050     2.3430 o          1 YEN      -0.621100
     21 N2           1.9400    -0.3430    -0.1820 ns         1 YEN      -0.484900
     22 C13          3.2910    -0.8490     0.1580 c3         1 YEN       0.033700
     23 C14          4.3240    -0.3800    -0.9080 c          1 YEN       0.598100
     24 O8           4.0020     0.0820    -1.9960 o          1 YEN      -0.616100
     25 C15          3.2960    -2.3970     0.3040 c3         1 YEN      -0.059400
     26 C16          2.3550    -2.9510     1.4060 c3         1 YEN      -0.206400
     27 C17          2.5360    -4.4720     1.5460 c          1 YEN       0.717000
     28 O9           1.8550    -5.2010     0.8410 o          1 YEN      -0.748500
     29 O10          3.3920    -4.8820     2.3140 o          1 YEN      -0.748500
     30 N3           5.6470    -0.5180    -0.5410 ns         1 YEN      -0.489900
     31 C18          6.8120    -0.1540    -1.3800 c3         1 YEN       0.050700
     32 C19          7.9250    -1.2420    -1.2600 c          1 YEN       0.584100
     33 O12          7.8620    -2.1960    -0.5010 o          1 YEN      -0.579100
     34 C20          7.3350     1.2700    -1.0410 c3         1 YEN      -0.173400
     35 C21          6.2960     2.3580    -1.3180 c          1 YEN       0.606100
     36 O13          6.0960     2.8190    -2.4280 o          1 YEN      -0.587100
     37 N4           5.6190     2.8250    -0.2470 nt         1 YEN      -0.612000
     38 N5           9.0160    -1.0860    -2.0480 nt         1 YEN      -0.612000
     39 H1          -2.2670    -0.2570    -1.9340 ha         1 YEN       0.068500
     40 H2          -4.5060     0.2220    -2.8690 ha         1 YEN       0.127000
     41 H3          -6.0420     0.8550     1.1170 ha         1 YEN       0.127000
     42 H4          -3.8180     0.3830     2.0550 ha         1 YEN       0.068500
     43 H7          -1.5080    -0.0630     1.8150 hc         1 YEN       0.042700
     44 H8          -1.2710    -1.3070     0.6110 hc         1 YEN       0.042700
     45 H9          -0.2750     0.3030    -0.9530 hc         1 YEN       0.067700
     46 H11          0.3820     2.6110    -0.2210 hc         1 YEN       0.066200
     47 H12         -1.3440     2.3410    -0.6040 hc         1 YEN       0.066200
     48 H13         -2.8920     2.6580     0.8790 hn         1 YEN       0.335500
     49 H14         -3.9800     3.5880     2.7010 h1         1 YEN       0.027033
     50 H15         -2.6740     2.8760     3.6970 h1         1 YEN       0.027033
     51 H16         -2.4890     4.5270     3.0210 h1         1 YEN       0.027033
     52 H17          1.6620    -0.3520    -1.1570 hn         1 YEN       0.317500
     53 H19          3.6070    -0.4060     1.1120 h1         1 YEN       0.080700
     54 H20          3.0260    -2.8490    -0.6590 hc         1 YEN       0.050700
     55 H21          4.3190    -2.7280     0.5240 hc         1 YEN       0.050700
     56 H22          2.6490    -2.4470     2.3350 hc         1 YEN       0.028700
     57 H23          1.3320    -2.7230     1.0830 hc         1 YEN       0.028700
     58 H26          5.8280    -0.9520     0.3580 hn         1 YEN       0.319500
     59 H28          6.5050    -0.1640    -2.4350 h1         1 YEN       0.094700
     60 H29          7.6060     1.2780     0.0220 hc         1 YEN       0.059200
     61 H30          8.2190     1.4840    -1.6530 hc         1 YEN       0.059200
     62 H31          5.8020     2.4490     0.6710 hn         1 YEN       0.309500
     63 H32          4.9310     3.5520    -0.3780 hn         1 YEN       0.309500
     64 H34          9.0810    -0.3020    -2.6800 hn         1 YEN       0.305500
     65 H35          9.7600    -1.7660    -1.9980 hn         1 YEN       0.305500
@<TRIPOS>BOND
     1     1     2 ar  
     2     1     6 ar  
     3     1    39 1   
     4     2     3 ar  
     5     2    40 1   
     6     3     4 ar  
     7     3     7 1   
     8     4     5 ar  
     9     4    41 1   
    10     5     6 ar  
    11     5    42 1   
    12     6    12 1   
    13     7     8 1   
    14     8     9 1   
    15     8    10 1   
    16     8    11 1   
    17    12    13 1   
    18    12    43 1   
    19    12    44 1   
    20    13    14 1   
    21    13    16 1   
    22    13    45 1   
    23    14    15 2   
    24    14    21 1   
    25    16    17 1   
    26    16    46 1   
    27    16    47 1   
    28    17    18 1   
    29    17    20 2   
    30    18    19 1   
    31    18    48 1   
    32    19    49 1   
    33    19    50 1   
    34    19    51 1   
    35    21    22 1   
    36    21    52 1   
    37    22    23 1   
    38    22    25 1   
    39    22    53 1   
    40    23    24 2   
    41    23    30 1   
    42    25    26 1   
    43    25    54 1   
    44    25    55 1   
    45    26    27 1   
    46    26    56 1   
    47    26    57 1   
    48    27    28 1   
    49    27    29 1   
    50    30    31 1   
    51    30    58 1   
    52    31    32 1   
    53    31    34 1   
    54    31    59 1   
    55    32    33 2   
    56    32    38 1   
    57    34    35 1   
    58    34    60 1   
    59    34    61 1   
    60    35    36 2   
    61    35    37 1   
    62    37    62 1   
    63    37    63 1   
    64    38    64 1   
    65    38    65 1   
@<TRIPOS>SUBSTRUCTURE
     1 YEN         1 TEMP              0 ****  ****    0 ROOT
