@<TRIPOS>MOLECULE
YEN
   65    65     1     0     0
SMALL
bcc


@<TRIPOS>ATOM
      1 C1          -3.7350    -1.0020     0.1510 ca         1 YEN      -0.104500
      2 C2          -5.0120    -0.8960    -0.3730 ca         1 YEN      -0.238000
      3 C3          -5.7090     0.3200    -0.3430 ca         1 YEN       0.312100
      4 C4          -5.0730     1.4190     0.2430 ca         1 YEN      -0.238000
      5 C5          -3.7920     1.2930     0.7650 ca         1 YEN      -0.104500
      6 C6          -3.0930     0.0900     0.7330 ca         1 YEN      -0.229300
      7 O1          -6.9230     0.3550    -0.8890 os         1 YEN      -0.420500
      8 P1          -8.1980     1.4480    -0.3750 p5         1 YEN       1.261900
      9 O2          -9.3510     0.8450    -1.1550 o          1 YEN      -0.903167
     10 O3          -8.2400     1.2580     1.1290 o          1 YEN      -0.903167
     11 O4          -7.7390     2.8180    -0.8470 o          1 YEN      -0.903167
     12 C7          -1.7000    -0.0380     1.2860 c3         1 YEN       0.009900
     13 C8          -0.6570    -0.2870     0.1920 c3         1 YEN      -0.126700
     14 C9           0.7160    -0.5830     0.7850 c          1 YEN       0.687100
     15 O5           0.9770    -0.4180     1.9650 o          1 YEN      -0.614100
     16 C10         -0.6020     0.8570    -0.8330 c3         1 YEN      -0.149400
     17 C11         -0.1310     2.1550    -0.2170 c          1 YEN       0.668100
     18 N1          -0.9820     3.1870    -0.3070 ns         1 YEN      -0.573900
     19 C12         -0.6750     4.4930     0.2250 c3         1 YEN       0.103300
     20 O7           0.9610     2.2480     0.3280 o          1 YEN      -0.621100
     21 N2           1.5930    -1.0960    -0.1000 ns         1 YEN      -0.551900
     22 C13          2.9930    -1.2960     0.1680 c3         1 YEN       0.033700
     23 C14          3.8080    -0.2490    -0.5800 c          1 YEN       0.665100
     24 O8           3.5090     0.1240    -1.7020 o          1 YEN      -0.616100
     25 C15          3.4570    -2.6920    -0.2640 c3         1 YEN      -0.059400
     26 C16          2.7780    -3.7940     0.5300 c3         1 YEN      -0.206400
     27 C17          3.1990    -5.2280     0.1630 c          1 YEN       0.927600
     28 O9           3.8970    -5.3860    -0.8580 o          1 YEN      -0.853800
     29 O10          2.7850    -6.1270     0.9240 o          1 YEN      -0.853800
     30 N3           4.9050     0.1910     0.0610 ns         1 YEN      -0.556900
     31 C18          5.8860     0.9940    -0.6180 c3         1 YEN       0.050700
     32 C19          6.5100     0.2150    -1.7800 c          1 YEN       0.651100
     33 O12          6.6750    -0.9920    -1.7220 o          1 YEN      -0.579100
     34 C20          6.9810     1.4000     0.3630 c3         1 YEN      -0.173400
     35 C21          6.4520     2.3470     1.4260 c          1 YEN       0.673100
     36 O13          5.7410     3.2970     1.1360 o          1 YEN      -0.587100
     37 N4           6.8390     2.0690     2.6760 nt         1 YEN      -0.679000
     38 N5           6.8960     0.9780    -2.8090 nt         1 YEN      -0.679000
     39 H1          -3.2320    -1.9630     0.1120 ha         1 YEN       0.086500
     40 H2          -5.4880    -1.7640    -0.8130 ha         1 YEN       0.145000
     41 H3          -5.5730     2.3780     0.2650 ha         1 YEN       0.145000
     42 H4          -3.3250     2.1640     1.2140 ha         1 YEN       0.086500
     43 H7          -1.4410     0.8590     1.8530 hc         1 YEN       0.042700
     44 H8          -1.6620    -0.8670     1.9980 hc         1 YEN       0.042700
     45 H9          -0.9590    -1.1810    -0.3650 hc         1 YEN       0.067700
     46 H11          0.0910     0.6080    -1.6410 hc         1 YEN       0.066200
     47 H12         -1.5860     0.9620    -1.2930 hc         1 YEN       0.066200
     48 H13         -1.8670     3.0530    -0.7640 hn         1 YEN       0.335500
     49 H14         -1.5170     5.1510     0.0290 h1         1 YEN       0.027033
     50 H15         -0.5090     4.4600     1.3030 h1         1 YEN       0.027033
     51 H16          0.2110     4.9210    -0.2440 h1         1 YEN       0.027033
     52 H17          1.3080    -1.1790    -1.0630 hn         1 YEN       0.317500
     53 H19          3.1440    -1.1880     1.2440 h1         1 YEN       0.080700
     54 H20          3.2680    -2.8160    -1.3330 hc         1 YEN       0.050700
     55 H21          4.5410    -2.7490    -0.1380 hc         1 YEN       0.050700
     56 H22          2.9530    -3.6400     1.6010 hc         1 YEN       0.028700
     57 H23          1.6920    -3.7210     0.4060 hc         1 YEN       0.028700
     58 H26          5.1510    -0.2350     0.9410 hn         1 YEN       0.319500
     59 H28          5.4090     1.9010    -0.9980 h1         1 YEN       0.094700
     60 H29          7.4440     0.5120     0.8000 hc         1 YEN       0.059200
     61 H30          7.7690     1.9290    -0.1790 hc         1 YEN       0.059200
     62 H31          7.4290     1.2830     2.8890 hn         1 YEN       0.309500
     63 H32          6.5800     2.6740     3.4390 hn         1 YEN       0.309500
     64 H34          6.6950     1.9620    -2.8470 hn         1 YEN       0.305500
     65 H35          7.3730     0.5730    -3.5980 hn         1 YEN       0.305500
@<TRIPOS>BOND
     1     1     2 ar  
     2     1     6 ar  
     3     1    39 1   
     4     2     3 ar  
     5     2    40 1   
     6     3     4 ar  
     7     3     7 1   
     8     4     5 ar  
     9     4    41 1   
    10     5     6 ar  
    11     5    42 1   
    12     6    12 1   
    13     7     8 1   
    14     8     9 1   
    15     8    10 1   
    16     8    11 1   
    17    12    13 1   
    18    12    43 1   
    19    12    44 1   
    20    13    14 1   
    21    13    16 1   
    22    13    45 1   
    23    14    15 2   
    24    14    21 1   
    25    16    17 1   
    26    16    46 1   
    27    16    47 1   
    28    17    18 1   
    29    17    20 2   
    30    18    19 1   
    31    18    48 1   
    32    19    49 1   
    33    19    50 1   
    34    19    51 1   
    35    21    22 1   
    36    21    52 1   
    37    22    23 1   
    38    22    25 1   
    39    22    53 1   
    40    23    24 2   
    41    23    30 1   
    42    25    26 1   
    43    25    54 1   
    44    25    55 1   
    45    26    27 1   
    46    26    56 1   
    47    26    57 1   
    48    27    28 1   
    49    27    29 1   
    50    30    31 1   
    51    30    58 1   
    52    31    32 1   
    53    31    34 1   
    54    31    59 1   
    55    32    33 2   
    56    32    38 1   
    57    34    35 1   
    58    34    60 1   
    59    34    61 1   
    60    35    36 2   
    61    35    37 1   
    62    37    62 1   
    63    37    63 1   
    64    38    64 1   
    65    38    65 1   
@<TRIPOS>SUBSTRUCTURE
     1 YEN         1 TEMP              0 ****  ****    0 ROOT
