@<TRIPOS>MOLECULE
YEQ
   42    44     1     0     0
SMALL
No Charge or Current Charge


@<TRIPOS>ATOM
      1 C10        178.7700   183.9720   140.6210 ca         1 YEQ      -0.066500
      2 C15        177.2590   185.0600   142.1880 ca         1 YEQ      -0.066500
      3 C20        172.8530   184.4200   135.4520 ca         1 YEQ       0.108400
      4 C01        171.4980   185.1680   139.4350 c3         1 YEQ      -0.082100
      5 C02        172.9960   185.2970   139.0630 c3         1 YEQ       0.173200
      6 C04        173.6160   182.8760   139.4720 c6         1 YEQ       0.186800
      7 C05        174.3150   181.9340   140.4940 c6         1 YEQ      -0.073400
      8 C06        175.4610   182.6280   141.2790 c6         1 YEQ      -0.058400
      9 C07        176.2600   183.5790   140.3520 c6         1 YEQ      -0.015400
     10 C08        175.3220   184.6460   139.6980 c6         1 YEQ       0.186800
     11 C09        177.4570   184.2200   141.0720 ca         1 YEQ      -0.111300
     12 C11        179.8670   184.5570   141.2780 ca         1 YEQ      -0.175500
     13 C12        179.6610   185.3910   142.3860 ca         1 YEQ       0.136100
     14 C14        178.3580   185.6430   142.8420 ca         1 YEQ      -0.175500
     15 C16        173.2060   185.3450   137.5350 ca         1 YEQ       0.091300
     16 C18        174.1240   186.4400   135.7250 ca         1 YEQ       0.108400
     17 C19        173.5940   185.4610   134.8690 ca         1 YEQ      -0.220000
     18 N03        173.8630   184.3130   139.7850 n3         1 YEQ      -0.753600
     19 N17        173.9310   186.3860   137.0590 nb         1 YEQ      -0.174000
     20 N21        172.6550   184.3590   136.7840 nb         1 YEQ      -0.174000
     21 O13        180.7310   185.9520   143.0150 oh         1 YEQ      -0.535100
     22 H1         178.9440   183.3270   139.7620 ha         1 YEQ       0.114000
     23 H2         176.2530   185.2630   142.5480 ha         1 YEQ       0.114000
     24 H4         171.3710   185.1850   140.5240 hc         1 YEQ       0.045033
     25 H5         170.9310   186.0080   139.0150 hc         1 YEQ       0.045033
     26 H6         171.0580   184.2410   139.0520 hc         1 YEQ       0.045033
     27 H7         173.2770   186.2930   139.4360 h1         1 YEQ       0.076700
     28 H8         172.5440   182.6380   139.4640 h1         1 YEQ       0.037200
     29 H9         174.0000   182.6450   138.4670 h1         1 YEQ       0.037200
     30 H10        173.5740   181.5540   141.2100 hc         1 YEQ       0.039700
     31 H11        174.7040   181.0560   139.9620 hc         1 YEQ       0.039700
     32 H12        176.1260   181.8710   141.7170 hc         1 YEQ       0.044200
     33 H13        175.0370   183.1950   142.1190 hc         1 YEQ       0.044200
     34 H14        176.6480   182.9580   139.5320 hc         1 YEQ       0.047700
     35 H15        175.6310   184.7660   138.6490 h1         1 YEQ       0.037200
     36 H16        175.4910   185.6200   140.1800 h1         1 YEQ       0.037200
     37 H17        180.8760   184.3620   140.9250 ha         1 YEQ       0.119000
     38 H18        178.1890   186.2890   143.7010 ha         1 YEQ       0.119000
     39 H19        174.7080   187.2750   135.3430 h4         1 YEQ       0.023600
     40 H20        173.7510   185.5070   133.7940 ha         1 YEQ       0.135000
     41 H22        180.4010   186.4980   143.7610 ho         1 YEQ       0.463000
     42 H3         172.4110   183.6280   134.8490 h4         1 YEQ       0.023600
@<TRIPOS>BOND
     1     1    11 ar  
     2     1    12 ar  
     3     1    22 1   
     4     2    11 ar  
     5     2    14 ar  
     6     2    23 1   
     7     3    17 ar  
     8     3    20 ar  
     9     3    42 1   
    10     4     5 1   
    11     4    24 1   
    12     4    25 1   
    13     4    26 1   
    14     5    15 1   
    15     5    18 1   
    16     5    27 1   
    17     6     7 1   
    18     6    18 1   
    19     6    28 1   
    20     6    29 1   
    21     7     8 1   
    22     7    30 1   
    23     7    31 1   
    24     8     9 1   
    25     8    32 1   
    26     8    33 1   
    27     9    10 1   
    28     9    11 1   
    29     9    34 1   
    30    10    18 1   
    31    10    35 1   
    32    10    36 1   
    33    12    13 ar  
    34    12    37 1   
    35    13    14 ar  
    36    13    21 1   
    37    14    38 1   
    38    15    19 ar  
    39    15    20 ar  
    40    16    17 ar  
    41    16    19 ar  
    42    16    39 1   
    43    17    40 1   
    44    21    41 1   
@<TRIPOS>SUBSTRUCTURE
     1 YEQ         1 TEMP              0 ****  ****    0 ROOT
