@<TRIPOS>MOLECULE
YEQ
   42    44     1     0     0
SMALL
abcg2


@<TRIPOS>ATOM
      1 C10        178.6410   183.9940   140.5320 ca         1 YEQ      -0.066500
      2 C15        177.2670   185.0340   142.1740 ca         1 YEQ      -0.066500
      3 C20        173.0230   184.4550   135.5090 ca         1 YEQ       0.108400
      4 C01        171.5180   184.9800   139.3910 c3         1 YEQ      -0.082100
      5 C02        172.9880   185.2320   139.0780 c3         1 YEQ       0.173200
      6 C04        173.7360   182.8670   139.3860 c6         1 YEQ       0.186800
      7 C05        174.2140   182.0250   140.5770 c6         1 YEQ      -0.073400
      8 C06        175.3210   182.7440   141.3570 c6         1 YEQ      -0.058400
      9 C07        176.1470   183.6090   140.4070 c6         1 YEQ      -0.015400
     10 C08        175.2480   184.6960   139.7860 c6         1 YEQ       0.186800
     11 C09        177.3680   184.2180   141.0490 ca         1 YEQ      -0.111300
     12 C11        179.7720   184.5570   141.1040 ca         1 YEQ      -0.175500
     13 C12        179.6510   185.3690   142.2280 ca         1 YEQ       0.136100
     14 C14        178.3860   185.6020   142.7630 ca         1 YEQ      -0.175500
     15 C16        173.2350   185.3430   137.5850 ca         1 YEQ       0.091300
     16 C18        174.1890   186.4620   135.8570 ca         1 YEQ       0.108400
     17 C19        173.7450   185.5030   134.9640 ca         1 YEQ      -0.220000
     18 N03        173.8610   184.2690   139.7290 n3         1 YEQ      -0.753600
     19 N17        173.9400   186.3880   137.1590 nb         1 YEQ      -0.174000
     20 N21        172.7650   184.3730   136.8060 nb         1 YEQ      -0.174000
     21 O13        180.7760   185.8980   142.7540 oh         1 YEQ      -0.535100
     22 H1         178.7560   183.3650   139.6570 ha         1 YEQ       0.114000
     23 H2         176.2960   185.2390   142.6090 ha         1 YEQ       0.114000
     24 H4         171.3770   184.9180   140.4690 hc         1 YEQ       0.045033
     25 H5         170.9090   185.8030   139.0150 hc         1 YEQ       0.045033
     26 H6         171.1430   184.0640   138.9390 hc         1 YEQ       0.045033
     27 H7         173.2530   186.2050   139.5020 h1         1 YEQ       0.076700
     28 H8         172.6980   182.6310   139.1590 h1         1 YEQ       0.037200
     29 H9         174.3080   182.6060   138.4820 h1         1 YEQ       0.037200
     30 H10        173.3760   181.8130   141.2450 hc         1 YEQ       0.039700
     31 H11        174.5740   181.0620   140.2100 hc         1 YEQ       0.039700
     32 H12        175.9630   182.0190   141.8630 hc         1 YEQ       0.044200
     33 H13        174.8870   183.3730   142.1380 hc         1 YEQ       0.044200
     34 H14        176.4990   182.9590   139.5990 hc         1 YEQ       0.047700
     35 H15        175.6620   184.9550   138.7990 h1         1 YEQ       0.037200
     36 H16        175.2910   185.6090   140.3900 h1         1 YEQ       0.037200
     37 H17        180.7510   184.3690   140.6790 ha         1 YEQ       0.119000
     38 H18        178.2720   186.2320   143.6390 ha         1 YEQ       0.119000
     39 H19        174.7620   187.3180   135.5170 h4         1 YEQ       0.023600
     40 H20        173.9510   185.5670   133.9050 ha         1 YEQ       0.135000
     41 H22        180.5640   186.4430   143.5200 ho         1 YEQ       0.463000
     42 H3         172.6370   183.6590   134.8820 h4         1 YEQ       0.023600
@<TRIPOS>BOND
     1     1    11 ar  
     2     1    12 ar  
     3     1    22 1   
     4     2    11 ar  
     5     2    14 ar  
     6     2    23 1   
     7     3    17 ar  
     8     3    20 ar  
     9     3    42 1   
    10     4     5 1   
    11     4    24 1   
    12     4    25 1   
    13     4    26 1   
    14     5    15 1   
    15     5    18 1   
    16     5    27 1   
    17     6     7 1   
    18     6    18 1   
    19     6    28 1   
    20     6    29 1   
    21     7     8 1   
    22     7    30 1   
    23     7    31 1   
    24     8     9 1   
    25     8    32 1   
    26     8    33 1   
    27     9    10 1   
    28     9    11 1   
    29     9    34 1   
    30    10    18 1   
    31    10    35 1   
    32    10    36 1   
    33    12    13 ar  
    34    12    37 1   
    35    13    14 ar  
    36    13    21 1   
    37    14    38 1   
    38    15    19 ar  
    39    15    20 ar  
    40    16    17 ar  
    41    16    19 ar  
    42    16    39 1   
    43    17    40 1   
    44    21    41 1   
@<TRIPOS>SUBSTRUCTURE
     1 YEQ         1 TEMP              0 ****  ****    0 ROOT
