@<TRIPOS>MOLECULE
YER
   24    25     1     0     0
SMALL
abcg2


@<TRIPOS>ATOM
      1 N1           1.2530     4.1790   -32.1020 nb         1 YER      -0.241000
      2 C4           1.2070     7.1380   -32.2670 ca         1 YER      -0.149000
      3 C5          -0.1100     6.8320   -31.9090 ca         1 YER       0.255000
      4 C6           0.0220     4.3270   -31.5960 ca         1 YER       0.383900
      5 C7           1.7360     2.9350   -32.1380 ca         1 YER       0.148400
      6 C8           1.0240     1.8380   -31.6840 ca         1 YER      -0.313000
      7 C10         -1.0670     7.8540   -31.9040 ca         1 YER      -0.129000
      8 O1          -2.9610     9.9200   -31.8340 o          1 YER      -0.720500
      9 O           -1.4800    11.3840   -32.6640 o          1 YER      -0.720500
     10 C1          -0.7440     9.1570   -32.2580 ca         1 YER      -0.109600
     11 C3           1.5300     8.4450   -32.6200 ca         1 YER      -0.129000
     12 C2           0.5720     9.4500   -32.6240 ca         1 YER      -0.100000
     13 N           -0.5570     5.5610   -31.5240 nu         1 YER      -0.908900
     14 N2          -0.7550     3.3260   -31.1270 nb         1 YER      -0.241000
     15 C9          -0.2450     2.1030   -31.1780 ca         1 YER       0.148400
     16 H3           1.9570     6.3650   -32.2720 ha         1 YER       0.121000
     17 H5           2.7330     2.8230   -32.5500 h4         1 YER       0.010100
     18 H6           1.4290     0.8370   -31.7200 ha         1 YER       0.121000
     19 H8          -2.0880     7.6310   -31.6200 ha         1 YER       0.129000
     20 H2           2.5520     8.6740   -32.8960 ha         1 YER       0.088000
     21 H1           0.8300    10.4610   -32.9040 ha         1 YER       0.130000
     22 H4          -1.5040     5.5260   -31.1770 hn         1 YER       0.508000
     23 H7          -0.8730     1.3020   -30.8020 h4         1 YER       0.010100
     24 C           -1.8200    10.2460   -32.2510 c          1 YER       0.706600
@<TRIPOS>BOND
     1     1     4 ar  
     2     1     5 ar  
     3     2     3 ar  
     4     2    11 ar  
     5     2    16 1   
     6     3     7 ar  
     7     3    13 1   
     8     4    13 1   
     9     4    14 ar  
    10     5     6 ar  
    11     5    17 1   
    12     6    15 ar  
    13     6    18 1   
    14     7    10 ar  
    15     7    19 1   
    16     8    24 1   
    17     9    24 1   
    18    10    12 ar  
    19    10    24 1   
    20    11    12 ar  
    21    11    20 1   
    22    12    21 1   
    23    13    22 1   
    24    14    15 ar  
    25    15    23 1   
@<TRIPOS>SUBSTRUCTURE
     1 YER         1 TEMP              0 ****  ****    0 ROOT
