@<TRIPOS>MOLECULE
YER
   24    25     1     0     0
SMALL
No Charge or Current Charge


@<TRIPOS>ATOM
      1 N1           1.0980     4.1290   -32.3620 nb         1 YER      -0.241000
      2 C4           1.2450     7.2060   -32.0120 ca         1 YER      -0.149000
      3 C5          -0.1020     6.8600   -31.7900 ca         1 YER       0.255000
      4 C6           0.0490     4.3010   -31.5330 ca         1 YER       0.383900
      5 C7           1.5610     2.8730   -32.4990 ca         1 YER       0.148400
      6 C8           0.9690     1.7990   -31.8150 ca         1 YER      -0.313000
      7 C10         -1.0950     7.8450   -31.9390 ca         1 YER      -0.129000
      8 O1          -3.0180     9.9070   -32.2820 o          1 YER      -0.720500
      9 O           -1.5310    11.3470   -32.8520 o          1 YER      -0.720500
     10 C1          -0.7700     9.1660   -32.3340 ca         1 YER      -0.109600
     11 C3           1.5870     8.5100   -32.4030 ca         1 YER      -0.129000
     12 C2           0.5880     9.4830   -32.5660 ca         1 YER      -0.100000
     13 N           -0.4870     5.5760   -31.3840 nu         1 YER      -0.908900
     14 N2          -0.5930     3.3380   -30.8460 nb         1 YER      -0.241000
     15 C9          -0.1270     2.0820   -30.9850 ca         1 YER       0.148400
     16 H3           2.0350     6.4770   -31.8670 ha         1 YER       0.121000
     17 H5           2.4120     2.7270   -33.1630 h4         1 YER       0.010100
     18 H6           1.3440     0.7850   -31.9270 ha         1 YER       0.121000
     19 H8          -2.1320     7.5780   -31.7560 ha         1 YER       0.129000
     20 H2           2.6300     8.7690   -32.5730 ha         1 YER       0.088000
     21 H1           0.8750    10.4880   -32.8690 ha         1 YER       0.130000
     22 H4          -1.4020     5.5480   -30.9340 hn         1 YER       0.508000
     23 H7          -0.6380     1.2990   -30.4290 h4         1 YER       0.010100
     24 C           -1.8560    10.2210   -32.5020 c          1 YER       0.706600
@<TRIPOS>BOND
     1     1     4 ar  
     2     1     5 ar  
     3     2     3 ar  
     4     2    11 ar  
     5     2    16 1   
     6     3     7 ar  
     7     3    13 1   
     8     4    13 1   
     9     4    14 ar  
    10     5     6 ar  
    11     5    17 1   
    12     6    15 ar  
    13     6    18 1   
    14     7    10 ar  
    15     7    19 1   
    16     8    24 1   
    17     9    24 1   
    18    10    12 ar  
    19    10    24 1   
    20    11    12 ar  
    21    11    20 1   
    22    12    21 1   
    23    13    22 1   
    24    14    15 ar  
    25    15    23 1   
@<TRIPOS>SUBSTRUCTURE
     1 YER         1 TEMP              0 ****  ****    0 ROOT
