@<TRIPOS>MOLECULE
YES
   34    33     1     0     0
SMALL
No Charge or Current Charge


@<TRIPOS>ATOM
      1 O1           1.5610    -2.0290     1.5390 oh         1 YES      -0.664333
      2 C1           1.7970    -1.6530     0.1710 c3         1 YES       0.166933
      3 C2           1.2300    -0.2240    -0.1660 c3         1 YES      -0.032000
      4 C3           2.0470     0.8240     0.6780 c3         1 YES       0.166933
      5 O3           3.4670     0.7130     0.4710 oh         1 YES      -0.664333
      6 C4           1.5000    -0.0100    -1.6970 c3         1 YES       0.166933
      7 O4           1.1280     1.2960    -2.1650 oh         1 YES      -0.664333
      8 C5          -0.3300    -0.1440     0.1980 c3         1 YES      -0.041700
      9 C6          -0.9930     1.2720     0.0150 c3         1 YES      -0.080900
     10 C7          -1.9560     1.6860     1.1540 c3         1 YES       0.159600
     11 O7          -2.5140     2.9730     0.8700 oh         1 YES      -0.664000
     12 C8          -1.1900    -1.2570    -0.5050 c3         1 YES      -0.080900
     13 C9          -2.6730    -1.3370    -0.0800 c3         1 YES       0.159600
     14 O9          -3.2870    -2.4780    -0.6880 oh         1 YES      -0.664000
     15 H1           2.8750    -1.6800    -0.0370 h1         1 YES       0.028033
     16 H3           1.7410     1.8450     0.4230 h1         1 YES       0.028033
     17 H4           2.5690    -0.1720    -1.8940 h1         1 YES       0.028033
     18 H4A          0.9640    -0.7760    -2.2720 h1         1 YES       0.028033
     19 HO4          1.3810     1.3430    -3.1130 ho         1 YES       0.444667
     20 H5          -0.3910    -0.3550     1.2730 hc         1 YES       0.057700
     21 H6          -0.2420     2.0610    -0.0570 hc         1 YES       0.058450
     22 H6A         -1.5300     1.3020    -0.9410 hc         1 YES       0.058450
     23 H7          -2.7580     0.9480     1.2690 h1         1 YES       0.015450
     24 H7A         -1.3970     1.7190     2.0990 h1         1 YES       0.015450
     25 HO7         -3.1000     3.2030     1.6250 ho         1 YES       0.440500
     26 H8          -1.1540    -1.1180    -1.5910 hc         1 YES       0.058450
     27 H8A         -0.7590    -2.2410    -0.2990 hc         1 YES       0.058450
     28 H9          -2.7340    -1.4140     1.0130 h1         1 YES       0.015450
     29 H15          2.0020    -2.8970     1.6770 ho         1 YES       0.444667
     30 H16          1.3550    -2.3970    -0.5030 h1         1 YES       0.028033
     31 H17          1.8160     0.6810     1.7420 h1         1 YES       0.028033
     32 H18          3.8920     1.3930     1.0380 ho         1 YES       0.444667
     33 H19         -3.1970    -0.4250    -0.3930 h1         1 YES       0.015450
     34 H20         -4.2240    -2.4910    -0.3900 ho         1 YES       0.440500
@<TRIPOS>BOND
     1     1     2 1   
     2     1    29 1   
     3     2     3 1   
     4     2    15 1   
     5     2    30 1   
     6     3     4 1   
     7     3     6 1   
     8     3     8 1   
     9     4     5 1   
    10     4    16 1   
    11     4    31 1   
    12     5    32 1   
    13     6     7 1   
    14     6    17 1   
    15     6    18 1   
    16     7    19 1   
    17     8     9 1   
    18     8    12 1   
    19     8    20 1   
    20     9    10 1   
    21     9    21 1   
    22     9    22 1   
    23    10    11 1   
    24    10    23 1   
    25    10    24 1   
    26    11    25 1   
    27    12    13 1   
    28    12    26 1   
    29    12    27 1   
    30    13    14 1   
    31    13    28 1   
    32    13    33 1   
    33    14    34 1   
@<TRIPOS>SUBSTRUCTURE
     1 YES         1 TEMP              0 ****  ****    0 ROOT
