@<TRIPOS>MOLECULE
YES
   34    33     1     0     0
SMALL
abcg2


@<TRIPOS>ATOM
      1 O1           1.4690    -1.9520     1.5010 oh         1 YES      -0.664333
      2 C1           1.7440    -1.6160     0.1610 c3         1 YES       0.166933
      3 C2           1.1880    -0.2200    -0.1660 c3         1 YES      -0.032000
      4 C3           1.9340     0.8190     0.6830 c3         1 YES       0.166933
      5 O3           3.3250     0.7170     0.4670 oh         1 YES      -0.664333
      6 C4           1.4820    -0.0280    -1.6580 c3         1 YES       0.166933
      7 O4           1.1900     1.2840    -2.0790 oh         1 YES      -0.664333
      8 C5          -0.3300    -0.1470     0.1870 c3         1 YES      -0.041700
      9 C6          -0.9810     1.2390    -0.0260 c3         1 YES      -0.080900
     10 C7          -1.8410     1.6420     1.1600 c3         1 YES       0.159600
     11 O7          -2.4260     2.9000     0.8980 oh         1 YES      -0.664000
     12 C8          -1.1430    -1.2550    -0.4970 c3         1 YES      -0.080900
     13 C9          -2.6040    -1.3010    -0.0860 c3         1 YES       0.159600
     14 O9          -3.1960    -2.4340    -0.6890 oh         1 YES      -0.664000
     15 H1           2.8220    -1.6220    -0.0330 h1         1 YES       0.028033
     16 H3           1.5870     1.8260     0.4370 h1         1 YES       0.028033
     17 H4           2.5370    -0.2690    -1.8370 h1         1 YES       0.028033
     18 H4A          0.8990    -0.7610    -2.2290 h1         1 YES       0.028033
     19 HO4          1.4050     1.3470    -3.0140 ho         1 YES       0.444667
     20 H5          -0.3770    -0.3530     1.2640 hc         1 YES       0.057700
     21 H6          -0.2360     2.0190    -0.1710 hc         1 YES       0.058450
     22 H6A         -1.5870     1.2370    -0.9370 hc         1 YES       0.058450
     23 H7          -2.6090     0.8830     1.3530 h1         1 YES       0.015450
     24 H7A         -1.2070     1.6750     2.0580 h1         1 YES       0.015450
     25 HO7         -2.9920     3.1270     1.6410 ho         1 YES       0.440500
     26 H8          -1.0940    -1.1440    -1.5850 hc         1 YES       0.058450
     27 H8A         -0.7170    -2.2310    -0.2570 hc         1 YES       0.058450
     28 H9          -2.6760    -1.3530     1.0100 h1         1 YES       0.015450
     29 H15          1.8440    -2.8200     1.6720 ho         1 YES       0.444667
     30 H16          1.3060    -2.3500    -0.5270 h1         1 YES       0.028033
     31 H17          1.6830     0.6510     1.7390 h1         1 YES       0.028033
     32 H18          3.7460     1.4720     0.8850 ho         1 YES       0.444667
     33 H19         -3.1190    -0.3840    -0.3980 h1         1 YES       0.015450
     34 H20         -4.1300    -2.4360    -0.4650 ho         1 YES       0.440500
@<TRIPOS>BOND
     1     1     2 1   
     2     1    29 1   
     3     2     3 1   
     4     2    15 1   
     5     2    30 1   
     6     3     4 1   
     7     3     6 1   
     8     3     8 1   
     9     4     5 1   
    10     4    16 1   
    11     4    31 1   
    12     5    32 1   
    13     6     7 1   
    14     6    17 1   
    15     6    18 1   
    16     7    19 1   
    17     8     9 1   
    18     8    12 1   
    19     8    20 1   
    20     9    10 1   
    21     9    21 1   
    22     9    22 1   
    23    10    11 1   
    24    10    23 1   
    25    10    24 1   
    26    11    25 1   
    27    12    13 1   
    28    12    26 1   
    29    12    27 1   
    30    13    14 1   
    31    13    28 1   
    32    13    33 1   
    33    14    34 1   
@<TRIPOS>SUBSTRUCTURE
     1 YES         1 TEMP              0 ****  ****    0 ROOT
