@<TRIPOS>MOLECULE
YET
   60    63     1     0     0
SMALL
No Charge or Current Charge


@<TRIPOS>ATOM
      1 O31          2.8510     1.4350    -1.2330 o          1 YET      -0.610100
      2 C11          3.6690     1.0790    -0.3910 c          1 YET       0.595100
      3 N27          4.5430     2.0190     0.1920 n          1 YET      -0.414800
      4 C20          4.5070     3.4580    -0.1440 c5         1 YET       0.101500
      5 C16          5.3490     4.0680     1.0050 c5         1 YET      -0.094400
      6 C19          5.5700     1.6810     1.2020 c5         1 YET       0.101500
      7 C15          6.4250     2.9750     1.2200 c5         1 YET      -0.094400
      8 C23          3.7980    -0.4000     0.0580 c3         1 YET       0.022000
      9 N26          2.7760    -1.3300    -0.5120 n          1 YET      -0.385800
     10 C10          1.4530    -1.3200    -0.0160 c          1 YET       0.547000
     11 O30          1.1770    -0.6390     0.9670 o          1 YET      -0.566000
     12 C18          3.2400    -2.3870    -1.4340 c3         1 YET       0.111000
     13 C14          2.8410    -2.1000    -2.8900 c3         1 YET      -0.104400
     14 C13          1.3680    -2.4480    -3.2020 c3         1 YET      -0.068400
     15 C17          0.3120    -1.7390    -2.3180 c3         1 YET      -0.084400
     16 C21          0.3480    -2.1240    -0.8120 c3         1 YET       0.152500
     17 N29         -1.0330    -1.9710    -0.2520 nu         1 YET      -0.911400
     18 C12         -1.3910    -2.2820     1.0260 c2         1 YET       0.874100
     19 N25         -0.8160    -3.3820     1.5390 nu         1 YET      -0.705000
     20 C1          -0.9490    -4.5940     1.0210 c1         1 YET       0.450800
     21 N24         -1.0310    -5.6750     0.6060 n1         1 YET      -0.497000
     22 N28         -2.2470    -1.6160     1.7080 ne         1 YET      -0.694100
     23 C7          -2.8870    -0.4560     1.2330 ca         1 YET       0.136400
     24 C2          -2.1570     0.7490     1.0650 ca         1 YET      -0.127000
     25 C4          -4.2660    -0.4930     0.9290 ca         1 YET      -0.066000
     26 C6          -4.8570     0.6830     0.4530 ca         1 YET      -0.100800
     27 C8          -4.1570     1.8470     0.2810 ca         1 YET       0.047100
     28 C3          -2.7910     1.9170     0.5820 ca         1 YET      -0.095000
     29 O32         -4.9390     2.8800    -0.1980 os         1 YET      -0.177200
     30 C9          -6.2100     2.3200    -0.3330 cc         1 YET       0.032900
     31 C22         -7.3340     3.1770    -0.8410 c3         1 YET      -0.030900
     32 C5          -6.1890     0.9950     0.0530 cd         1 YET      -0.238200
     33 H20          4.9710     3.6360    -1.1240 h1         1 YET       0.051450
     34 H20A         3.4850     3.8600    -0.1620 h1         1 YET       0.051450
     35 H16          5.7760     5.0420     0.7410 hc         1 YET       0.055450
     36 H16A         4.7420     4.2080     1.9070 hc         1 YET       0.055450
     37 H19          5.1040     1.4930     2.1790 h1         1 YET       0.051450
     38 H19A         6.1700     0.8050     0.9220 h1         1 YET       0.051450
     39 H15          7.1570     2.9750     0.4040 hc         1 YET       0.055450
     40 H15A         6.9780     3.0980     2.1580 hc         1 YET       0.055450
     41 H23          4.8060    -0.7330    -0.2160 h1         1 YET       0.069700
     42 H23A         3.7360    -0.4240     1.1530 h1         1 YET       0.069700
     43 H18          4.3350    -2.4520    -1.3840 h1         1 YET       0.050700
     44 H18A         2.8520    -3.3640    -1.1160 h1         1 YET       0.050700
     45 H14          3.0380    -1.0460    -3.1260 hc         1 YET       0.062200
     46 H14A         3.4820    -2.6950    -3.5510 hc         1 YET       0.062200
     47 H13          1.1690    -2.1960    -4.2510 hc         1 YET       0.045700
     48 H13A         1.2310    -3.5330    -3.1180 hc         1 YET       0.045700
     49 H17          0.4050    -0.6510    -2.4230 hc         1 YET       0.062200
     50 H17A        -0.6710    -2.0050    -2.7290 hc         1 YET       0.062200
     51 H21          0.6370    -3.1820    -0.7520 h1         1 YET       0.083700
     52 HN29        -1.5490    -1.1610    -0.5740 hn         1 YET       0.490000
     53 HN25        -0.9100    -3.3380     2.5420 hn         1 YET       0.531000
     54 H2          -1.1000     0.7790     1.3150 ha         1 YET       0.144000
     55 H4          -4.8460    -1.4040     1.0550 ha         1 YET       0.128000
     56 H3          -2.2380     2.8440     0.4500 ha         1 YET       0.131000
     57 H22         -7.5030     4.0310    -0.1750 hc         1 YET       0.056033
     58 H22A        -7.1060     3.5650    -1.8410 hc         1 YET       0.056033
     59 H22B        -8.2670     2.6060    -0.9040 hc         1 YET       0.056033
     60 H5          -7.0410     0.3200     0.0490 ha         1 YET       0.211000
@<TRIPOS>BOND
     1     1     2 2   
     2     2     3 1   
     3     2     8 1   
     4     3     4 1   
     5     3     6 1   
     6     4     5 1   
     7     4    33 1   
     8     4    34 1   
     9     5     7 1   
    10     5    35 1   
    11     5    36 1   
    12     6     7 1   
    13     6    37 1   
    14     6    38 1   
    15     7    39 1   
    16     7    40 1   
    17     8     9 1   
    18     8    41 1   
    19     8    42 1   
    20     9    10 1   
    21     9    12 1   
    22    10    11 2   
    23    10    16 1   
    24    12    13 1   
    25    12    43 1   
    26    12    44 1   
    27    13    14 1   
    28    13    45 1   
    29    13    46 1   
    30    14    15 1   
    31    14    47 1   
    32    14    48 1   
    33    15    16 1   
    34    15    49 1   
    35    15    50 1   
    36    16    17 1   
    37    16    51 1   
    38    17    18 1   
    39    17    52 1   
    40    18    19 1   
    41    18    22 2   
    42    19    20 1   
    43    19    53 1   
    44    20    21 3   
    45    22    23 1   
    46    23    24 ar  
    47    23    25 ar  
    48    24    28 ar  
    49    24    54 1   
    50    25    26 ar  
    51    25    55 1   
    52    26    27 ar  
    53    26    32 1   
    54    27    28 ar  
    55    27    29 1   
    56    28    56 1   
    57    29    30 1   
    58    30    31 1   
    59    30    32 2   
    60    31    57 1   
    61    31    58 1   
    62    31    59 1   
    63    32    60 1   
@<TRIPOS>SUBSTRUCTURE
     1 YET         1 TEMP              0 ****  ****    0 ROOT
