@<TRIPOS>MOLECULE
YET
   60    63     1     0     0
SMALL
abcg2


@<TRIPOS>ATOM
      1 O31          3.0670     1.0240    -1.5200 o          1 YET      -0.610100
      2 C11          3.6690     0.7770    -0.4830 c          1 YET       0.595100
      3 N27          4.3180     1.7150     0.2160 n          1 YET      -0.414800
      4 C20          4.3440     3.1100    -0.2140 c5         1 YET       0.101500
      5 C16          4.9310     3.8370     0.9900 c5         1 YET      -0.094400
      6 C19          5.0700     1.4980     1.4500 c5         1 YET       0.101500
      7 C15          5.8540     2.7950     1.6130 c5         1 YET      -0.094400
      8 C23          3.7560    -0.6410     0.0750 c3         1 YET       0.022000
      9 N26          2.7790    -1.5190    -0.5200 n          1 YET      -0.385800
     10 C10          1.4950    -1.2700    -0.2110 c          1 YET       0.547000
     11 O30          1.1810    -0.4190     0.6080 o          1 YET      -0.566000
     12 C18          3.1980    -2.4800    -1.5360 c3         1 YET       0.111000
     13 C14          2.8260    -2.0970    -2.9630 c3         1 YET      -0.104400
     14 C13          1.3650    -2.3500    -3.3100 c3         1 YET      -0.068400
     15 C17          0.3460    -1.6530    -2.4160 c3         1 YET      -0.084400
     16 C21          0.4290    -2.0880    -0.9440 c3         1 YET       0.152500
     17 N29         -0.8750    -1.9120    -0.3330 nu         1 YET      -0.911400
     18 C12         -1.1090    -1.9560     1.0050 c2         1 YET       0.874100
     19 N25         -0.3560    -2.9020     1.7190 nu         1 YET      -0.705000
     20 C1          -0.0430    -4.0950     1.2370 c1         1 YET       0.450800
     21 N24          0.2650    -5.1320     0.8310 n1         1 YET      -0.497000
     22 N28         -1.9680    -1.3020     1.6770 ne         1 YET      -0.694100
     23 C7          -2.6720    -0.2370     1.1000 ca         1 YET       0.136400
     24 C2          -2.0090     0.9100     0.6200 ca         1 YET      -0.127000
     25 C4          -4.0620    -0.2990     1.0770 ca         1 YET      -0.066000
     26 C6          -4.7770     0.7810     0.5640 ca         1 YET      -0.100800
     27 C8          -4.0860     1.9000     0.0960 ca         1 YET       0.047100
     28 C3          -2.7080     1.9950     0.1130 ca         1 YET      -0.095000
     29 O32         -4.9590     2.8340    -0.3490 os         1 YET      -0.177200
     30 C9          -6.2120     2.3270    -0.1730 cc         1 YET       0.032900
     31 C22         -7.3410     3.1850    -0.5920 c3         1 YET      -0.030900
     32 C5          -6.1670     1.0910     0.3730 cd         1 YET      -0.238200
     33 H20          4.9790     3.2240    -1.0980 h1         1 YET       0.051450
     34 H20A         3.3450     3.4600    -0.4730 h1         1 YET       0.051450
     35 H16          5.4470     4.7530     0.7050 hc         1 YET       0.055450
     36 H16A         4.1370     4.1060     1.6890 hc         1 YET       0.055450
     37 H19          4.3910     1.3410     2.2950 h1         1 YET       0.051450
     38 H19A         5.7220     0.6270     1.3770 h1         1 YET       0.051450
     39 H15          6.7920     2.7370     1.0570 hc         1 YET       0.055450
     40 H15A         6.0950     2.9980     2.6560 hc         1 YET       0.055450
     41 H23          4.7530    -1.0340    -0.1330 h1         1 YET       0.069700
     42 H23A         3.6480    -0.6380     1.1610 h1         1 YET       0.069700
     43 H18          4.2790    -2.5670    -1.4540 h1         1 YET       0.050700
     44 H18A         2.8040    -3.4710    -1.2930 h1         1 YET       0.050700
     45 H14          3.0890    -1.0510    -3.1300 hc         1 YET       0.062200
     46 H14A         3.4460    -2.6910    -3.6390 hc         1 YET       0.062200
     47 H13          1.1830    -2.0420    -4.3410 hc         1 YET       0.045700
     48 H13A         1.1730    -3.4280    -3.2750 hc         1 YET       0.045700
     49 H17          0.4440    -0.5660    -2.4870 hc         1 YET       0.062200
     50 H17A        -0.6510    -1.9080    -2.7820 hc         1 YET       0.062200
     51 H21          0.6980    -3.1480    -0.9300 h1         1 YET       0.083700
     52 HN29        -1.4680    -1.2490    -0.8120 hn         1 YET       0.490000
     53 HN25        -0.4120    -2.8240     2.7260 hn         1 YET       0.531000
     54 H2          -0.9280     0.9470     0.6580 ha         1 YET       0.144000
     55 H4          -4.5690    -1.1770     1.4570 ha         1 YET       0.128000
     56 H3          -2.1890     2.8730    -0.2480 ha         1 YET       0.131000
     57 H22         -7.3470     4.1310    -0.0470 hc         1 YET       0.056033
     58 H22A        -7.2910     3.4200    -1.6570 hc         1 YET       0.056033
     59 H22B        -8.2830     2.6770    -0.4000 hc         1 YET       0.056033
     60 H5          -7.0190     0.4750     0.6120 ha         1 YET       0.211000
@<TRIPOS>BOND
     1     1     2 2   
     2     2     3 1   
     3     2     8 1   
     4     3     4 1   
     5     3     6 1   
     6     4     5 1   
     7     4    33 1   
     8     4    34 1   
     9     5     7 1   
    10     5    35 1   
    11     5    36 1   
    12     6     7 1   
    13     6    37 1   
    14     6    38 1   
    15     7    39 1   
    16     7    40 1   
    17     8     9 1   
    18     8    41 1   
    19     8    42 1   
    20     9    10 1   
    21     9    12 1   
    22    10    11 2   
    23    10    16 1   
    24    12    13 1   
    25    12    43 1   
    26    12    44 1   
    27    13    14 1   
    28    13    45 1   
    29    13    46 1   
    30    14    15 1   
    31    14    47 1   
    32    14    48 1   
    33    15    16 1   
    34    15    49 1   
    35    15    50 1   
    36    16    17 1   
    37    16    51 1   
    38    17    18 1   
    39    17    52 1   
    40    18    19 1   
    41    18    22 2   
    42    19    20 1   
    43    19    53 1   
    44    20    21 3   
    45    22    23 1   
    46    23    24 ar  
    47    23    25 ar  
    48    24    28 ar  
    49    24    54 1   
    50    25    26 ar  
    51    25    55 1   
    52    26    27 ar  
    53    26    32 1   
    54    27    28 ar  
    55    27    29 1   
    56    28    56 1   
    57    29    30 1   
    58    30    31 1   
    59    30    32 2   
    60    31    57 1   
    61    31    58 1   
    62    31    59 1   
    63    32    60 1   
@<TRIPOS>SUBSTRUCTURE
     1 YET         1 TEMP              0 ****  ****    0 ROOT
