@<TRIPOS>MOLECULE
YEV
   71    75     1     0     0
SMALL
No Charge or Current Charge


@<TRIPOS>ATOM
      1 C           74.0980    33.6500    -1.3840 c3         1 YEV       0.088400
      2 N           75.5160    33.3330    -1.6460 ns         1 YEV      -0.522900
      3 C1          73.9330    34.8050    -0.4090 cc         1 YEV       0.405800
      4 C2          73.5010    36.7510     0.4470 cd         1 YEV       0.286900
      5 C13         74.7840    40.0600     2.7030 c3         1 YEV       0.157900
      6 O2          75.2470    32.4760    -3.7340 o          1 YEV      -0.583100
      7 C18         75.9920    32.7530    -2.8040 c          1 YEV       0.597100
      8 C19         77.5160    32.4810    -2.8210 c3         1 YEV      -0.060500
      9 C29         78.2250    33.2580    -3.9550 c3         1 YEV      -0.070100
     10 C20         77.8840    31.0060    -2.7980 cc         1 YEV      -0.169400
     11 C23         77.6700    30.0230    -3.8330 ca         1 YEV      -0.049800
     12 C24         77.0750    30.1330    -5.1010 ca         1 YEV      -0.164000
     13 C25         77.0050    28.9770    -5.9060 ca         1 YEV       0.116100
     14 O1          76.4350    29.0400    -7.1430 oh         1 YEV      -0.539100
     15 C26         77.5220    27.7490    -5.4380 ca         1 YEV      -0.116000
     16 C27         78.1100    27.6650    -4.1580 ca         1 YEV      -0.094000
     17 C22         78.1650    28.8300    -3.3810 ca         1 YEV      -0.080200
     18 N4          78.6880    28.9650    -2.1100 na         1 YEV      -0.219700
     19 C21         78.5050    30.3190    -1.7540 cd         1 YEV      -0.046300
     20 C28         78.9510    30.8570    -0.4180 c3         1 YEV      -0.044900
     21 C14         73.3330    32.3720    -0.9500 c3         1 YEV      -0.085400
     22 C15         71.8090    32.5790    -0.7850 c3         1 YEV      -0.075400
     23 C16         71.0650    31.2850    -0.3910 c3         1 YEV      -0.075400
     24 C17         69.5470    31.4880    -0.2230 c3         1 YEV      -0.088100
     25 N2          74.2210    34.7280     0.9340 na         1 YEV      -0.291500
     26 C3          73.9740    35.9700     1.4730 cc         1 YEV      -0.160000
     27 N1          73.4960    36.0170    -0.7260 nd         1 YEV      -0.668000
     28 C4          74.0450    36.3830     2.8850 ca         1 YEV      -0.041000
     29 C8          73.8680    35.4080     3.8840 ca         1 YEV      -0.064000
     30 C7          73.9290    35.7910     5.2340 ca         1 YEV      -0.108000
     31 C9          73.7450    34.8310     6.2480 ca         1 YEV      -0.082000
     32 C10         73.8040    35.2150     7.5970 ca         1 YEV      -0.119000
     33 C11         74.0470    36.5560     7.9330 ca         1 YEV      -0.093000
     34 C12         74.2300    37.5120     6.9180 ca         1 YEV      -0.094000
     35 C6          74.1740    37.1460     5.5600 ca         1 YEV       0.316000
     36 N3          74.3560    38.0850     4.6070 nb         1 YEV      -0.766000
     37 C5          74.2970    37.7210     3.3020 ca         1 YEV       0.617300
     38 O           74.5250    38.6890     2.3450 os         1 YEV      -0.452300
     39 H1          73.6580    33.9850    -2.3330 h1         1 YEV       0.098700
     40 H2          76.2000    33.5390    -0.9270 hn         1 YEV       0.322500
     41 H3          73.1500    37.7750     0.4750 h4         1 YEV       0.048100
     42 H4          74.9330    40.6680     1.8020 h1         1 YEV       0.048700
     43 H5          73.9410    40.4860     3.2630 h1         1 YEV       0.048700
     44 H6          75.6890    40.1410     3.3190 h1         1 YEV       0.048700
     45 H7          77.9090    32.9120    -1.8940 hc         1 YEV       0.057700
     46 H8          78.0370    34.3340    -3.8580 hc         1 YEV       0.044700
     47 H9          79.3090    33.0970    -3.9110 hc         1 YEV       0.044700
     48 H10         77.8730    32.9420    -4.9430 hc         1 YEV       0.044700
     49 H11         76.6750    31.0780    -5.4510 ha         1 YEV       0.127000
     50 H12         76.1240    29.9580    -7.2960 ho         1 YEV       0.465000
     51 H13         77.4630    26.8630    -6.0650 ha         1 YEV       0.129000
     52 H14         78.5070    26.7230    -3.7880 ha         1 YEV       0.117000
     53 H15         79.1150    28.2390    -1.5440 hn         1 YEV       0.350000
     54 H16         79.7040    31.6430    -0.5440 hc         1 YEV       0.051367
     55 H17         78.1050    31.2850     0.1330 hc         1 YEV       0.051367
     56 H18         79.3910    30.0710     0.2070 hc         1 YEV       0.051367
     57 H19         73.4980    31.5870    -1.6970 hc         1 YEV       0.042200
     58 H20         73.7530    31.9990    -0.0070 hc         1 YEV       0.042200
     59 H21         71.6200    33.3430    -0.0190 hc         1 YEV       0.054200
     60 H22         71.3930    32.9610    -1.7260 hc         1 YEV       0.054200
     61 H23         71.2400    30.5170    -1.1550 hc         1 YEV       0.033700
     62 H24         71.4790    30.8990     0.5500 hc         1 YEV       0.033700
     63 H25         69.0640    30.5440     0.0560 hc         1 YEV       0.033367
     64 H26         69.3390    32.2250     0.5620 hc         1 YEV       0.033367
     65 H27         69.0970    31.8400    -1.1590 hc         1 YEV       0.033367
     66 H28         74.5570    33.9050     1.4170 hn         1 YEV       0.346000
     67 H30         73.6720    34.3720     3.6180 ha         1 YEV       0.110000
     68 H31         73.5560    33.7900     5.9940 ha         1 YEV       0.110000
     69 H32         73.6620    34.4740     8.3810 ha         1 YEV       0.115000
     70 H33         74.0940    36.8570     8.9780 ha         1 YEV       0.116000
     71 H34         74.4180    38.5480     7.1830 ha         1 YEV       0.130000
@<TRIPOS>BOND
     1     1     2 1   
     2     1     3 1   
     3     1    21 1   
     4     1    39 1   
     5     2     7 1   
     6     2    40 1   
     7     3    25 1   
     8     3    27 2   
     9     4    26 2   
    10     4    27 1   
    11     4    41 1   
    12     5    38 1   
    13     5    42 1   
    14     5    43 1   
    15     5    44 1   
    16     6     7 2   
    17     7     8 1   
    18     8     9 1   
    19     8    10 1   
    20     8    45 1   
    21     9    46 1   
    22     9    47 1   
    23     9    48 1   
    24    10    11 1   
    25    10    19 2   
    26    11    12 ar  
    27    11    17 ar  
    28    12    13 ar  
    29    12    49 1   
    30    13    14 1   
    31    13    15 ar  
    32    14    50 1   
    33    15    16 ar  
    34    15    51 1   
    35    16    17 ar  
    36    16    52 1   
    37    17    18 1   
    38    18    19 1   
    39    18    53 1   
    40    19    20 1   
    41    20    54 1   
    42    20    55 1   
    43    20    56 1   
    44    21    22 1   
    45    21    57 1   
    46    21    58 1   
    47    22    23 1   
    48    22    59 1   
    49    22    60 1   
    50    23    24 1   
    51    23    61 1   
    52    23    62 1   
    53    24    63 1   
    54    24    64 1   
    55    24    65 1   
    56    25    26 1   
    57    25    66 1   
    58    26    28 1   
    59    28    29 ar  
    60    28    37 ar  
    61    29    30 ar  
    62    29    67 1   
    63    30    31 ar  
    64    30    35 ar  
    65    31    32 ar  
    66    31    68 1   
    67    32    33 ar  
    68    32    69 1   
    69    33    34 ar  
    70    33    70 1   
    71    34    35 ar  
    72    34    71 1   
    73    35    36 ar  
    74    36    37 ar  
    75    37    38 1   
@<TRIPOS>SUBSTRUCTURE
     1 YEV         1 TEMP              0 ****  ****    0 ROOT
