@<TRIPOS>MOLECULE
YEV
   71    75     1     0     0
SMALL
bcc


@<TRIPOS>ATOM
      1 C           73.9870    33.1550    -1.5960 c3         1 YEV       0.088400
      2 N           75.3670    32.7270    -1.5300 ns         1 YEV      -0.589900
      3 C1          73.7560    34.3690    -0.7480 cc         1 YEV       0.405800
      4 C2          73.0580    36.2380     0.0090 cd         1 YEV       0.352200
      5 C13         73.6020    39.7240     2.2180 c3         1 YEV       0.134700
      6 O2          76.1910    34.4840    -2.6640 o          1 YEV      -0.583100
      7 C18         76.3770    33.4330    -2.0730 c          1 YEV       0.664100
      8 C19         77.7700    32.8460    -1.8430 c3         1 YEV      -0.060500
      9 C29         78.8100    33.4800    -2.7650 c3         1 YEV      -0.070100
     10 C20         77.7780    31.3510    -1.9210 cc         1 YEV      -0.169400
     11 C23         77.4090    30.5660    -3.0630 ca         1 YEV      -0.049800
     12 C24         76.9130    30.8830    -4.3350 ca         1 YEV      -0.182000
     13 C25         76.6430    29.8540    -5.2200 ca         1 YEV       0.116100
     14 O1          76.1660    30.0710    -6.4710 oh         1 YEV      -0.500100
     15 C26         76.8550    28.5120    -4.8550 ca         1 YEV      -0.134000
     16 C27         77.3370    28.1830    -3.6030 ca         1 YEV      -0.112000
     17 C22         77.6100    29.2180    -2.7140 ca         1 YEV      -0.080200
     18 N4          78.0790    29.1930    -1.4280 na         1 YEV      -0.169400
     19 C21         78.1780    30.4670    -0.9460 cd         1 YEV      -0.046300
     20 C28         78.6660    30.7110     0.4370 c3         1 YEV      -0.044900
     21 C14         73.0890    31.9850    -1.1830 c3         1 YEV      -0.085400
     22 C15         71.6010    32.3030    -1.2340 c3         1 YEV      -0.075400
     23 C16         70.7420    31.0760    -0.9560 c3         1 YEV      -0.075400
     24 C17         69.2530    31.3890    -0.9710 c3         1 YEV      -0.088100
     25 N2          74.2530    34.4950     0.4960 na         1 YEV      -0.291900
     26 C3          73.8250    35.6950     1.0150 cc         1 YEV      -0.174600
     27 N1          73.0240    35.4070    -1.0700 nd         1 YEV      -0.668000
     28 C4          74.1540    36.1100     2.3700 ca         1 YEV      -0.106300
     29 C8          74.5590    35.2160     3.3250 ca         1 YEV      -0.082000
     30 C7          74.8940    35.6390     4.6320 ca         1 YEV      -0.173300
     31 C9          75.3190    34.7490     5.6400 ca         1 YEV      -0.100000
     32 C10         75.6290    35.2190     6.8890 ca         1 YEV      -0.137000
     33 C11         75.5230    36.5940     7.1720 ca         1 YEV      -0.111000
     34 C12         75.1090    37.4790     6.2080 ca         1 YEV      -0.177300
     35 C6          74.7850    37.0170     4.9170 ca         1 YEV       0.446600
     36 N3          74.3750    37.9030     3.9760 nb         1 YEV      -0.766000
     37 C5          74.0810    37.4840     2.7880 ca         1 YEV       0.682600
     38 O           73.6830    38.3510     1.8630 os         1 YEV      -0.429100
     39 H1          73.7370    33.4380    -2.6230 h1         1 YEV       0.098700
     40 H2          75.5770    31.8420    -1.0940 hn         1 YEV       0.322500
     41 H3          72.5210    37.1710     0.0130 h4         1 YEV       0.048100
     42 H4          73.2660    40.2400     1.3220 h1         1 YEV       0.048700
     43 H5          72.8850    39.8900     3.0230 h1         1 YEV       0.048700
     44 H6          74.5710    40.1200     2.5230 h1         1 YEV       0.048700
     45 H7          78.0240    33.1340    -0.8150 hc         1 YEV       0.057700
     46 H8          78.8300    34.5640    -2.6640 hc         1 YEV       0.044700
     47 H9          79.7990    33.1020    -2.5090 hc         1 YEV       0.044700
     48 H10         78.6230    33.2410    -3.8120 hc         1 YEV       0.044700
     49 H11         76.7440    31.9150    -4.6260 ha         1 YEV       0.145000
     50 H12         76.0650    31.0160    -6.6290 ho         1 YEV       0.426000
     51 H13         76.6330    27.7310    -5.5710 ha         1 YEV       0.147000
     52 H14         77.4930    27.1480    -3.3290 ha         1 YEV       0.135000
     53 H15         78.2990    28.3620    -0.9040 hn         1 YEV       0.299700
     54 H16         79.7200    30.4440     0.5390 hc         1 YEV       0.051367
     55 H17         78.5620    31.7570     0.7160 hc         1 YEV       0.051367
     56 H18         78.1080    30.1180     1.1620 hc         1 YEV       0.051367
     57 H19         73.3060    31.1500    -1.8560 hc         1 YEV       0.042200
     58 H20         73.3600    31.6550    -0.1750 hc         1 YEV       0.042200
     59 H21         71.3580    33.0820    -0.5060 hc         1 YEV       0.054200
     60 H22         71.3460    32.7130    -2.2170 hc         1 YEV       0.054200
     61 H23         70.9640    30.3030    -1.6970 hc         1 YEV       0.033700
     62 H24         71.0190    30.6540     0.0150 hc         1 YEV       0.033700
     63 H25         68.6550    30.4990    -0.7730 hc         1 YEV       0.033367
     64 H26         68.9990    32.1330    -0.2130 hc         1 YEV       0.033367
     65 H27         68.9440    31.7880    -1.9380 hc         1 YEV       0.033367
     66 H28         74.8880    33.8450     0.9350 hn         1 YEV       0.295700
     67 H30         74.6170    34.1560     3.1060 ha         1 YEV       0.128000
     68 H31         75.3980    33.6930     5.4120 ha         1 YEV       0.128000
     69 H32         75.9560    34.5360     7.6620 ha         1 YEV       0.133000
     70 H33         75.7700    36.9560     8.1620 ha         1 YEV       0.134000
     71 H34         75.0250    38.5370     6.4190 ha         1 YEV       0.148000
@<TRIPOS>BOND
     1     1     2 1   
     2     1     3 1   
     3     1    21 1   
     4     1    39 1   
     5     2     7 1   
     6     2    40 1   
     7     3    25 1   
     8     3    27 2   
     9     4    26 2   
    10     4    27 1   
    11     4    41 1   
    12     5    38 1   
    13     5    42 1   
    14     5    43 1   
    15     5    44 1   
    16     6     7 2   
    17     7     8 1   
    18     8     9 1   
    19     8    10 1   
    20     8    45 1   
    21     9    46 1   
    22     9    47 1   
    23     9    48 1   
    24    10    11 1   
    25    10    19 2   
    26    11    12 ar  
    27    11    17 ar  
    28    12    13 ar  
    29    12    49 1   
    30    13    14 1   
    31    13    15 ar  
    32    14    50 1   
    33    15    16 ar  
    34    15    51 1   
    35    16    17 ar  
    36    16    52 1   
    37    17    18 1   
    38    18    19 1   
    39    18    53 1   
    40    19    20 1   
    41    20    54 1   
    42    20    55 1   
    43    20    56 1   
    44    21    22 1   
    45    21    57 1   
    46    21    58 1   
    47    22    23 1   
    48    22    59 1   
    49    22    60 1   
    50    23    24 1   
    51    23    61 1   
    52    23    62 1   
    53    24    63 1   
    54    24    64 1   
    55    24    65 1   
    56    25    26 1   
    57    25    66 1   
    58    26    28 1   
    59    28    29 ar  
    60    28    37 ar  
    61    29    30 ar  
    62    29    67 1   
    63    30    31 ar  
    64    30    35 ar  
    65    31    32 ar  
    66    31    68 1   
    67    32    33 ar  
    68    32    69 1   
    69    33    34 ar  
    70    33    70 1   
    71    34    35 ar  
    72    34    71 1   
    73    35    36 ar  
    74    36    37 ar  
    75    37    38 1   
@<TRIPOS>SUBSTRUCTURE
     1 YEV         1 TEMP              0 ****  ****    0 ROOT
