@<TRIPOS>MOLECULE
YEX
   32    35     1     0     0
SMALL
No Charge or Current Charge


@<TRIPOS>ATOM
      1 C1           5.4030     0.0460    -0.0010 cc         1 YEX      -0.187000
      2 C7           1.4610    -1.9410    -0.0070 ca         1 YEX      -0.123000
      3 C8           0.1350    -2.4000    -0.0090 ca         1 YEX      -0.065000
      4 C2           4.2960    -0.8200    -0.0020 cc         1 YEX      -0.144000
      5 C19          0.6690     0.3470    -0.0150 ca         1 YEX      -0.149000
      6 C5           4.9600     1.3370    -0.0060 cd         1 YEX      -0.180000
      7 C6           1.7450    -0.5630    -0.0100 ca         1 YEX       0.050000
      8 C9          -0.9430    -1.4900    -0.0150 ca         1 YEX      -0.100000
      9 C18         -0.6710    -0.1020    -0.0180 ca         1 YEX       0.042000
     10 C3           3.1420    -0.0790    -0.0070 cd         1 YEX      -0.149000
     11 C11         -3.3790    -1.0410    -0.0230 cc         1 YEX      -0.120000
     12 C10         -2.3490    -1.9650    -0.0180 cd         1 YEX      -0.010300
     13 C12         -3.1130     0.3670    -0.0260 cc         1 YEX      -0.035000
     14 C15         -1.8130     2.2050    -0.0270 c          1 YEX       0.525800
     15 C20         -2.6790    -3.4410    -0.0140 c3         1 YEX      -0.055800
     16 N13         -3.9720     1.3740    -0.0310 nd         1 YEX      -0.198600
     17 N4           3.5590     1.2650    -0.0090 na         1 YEX      -0.092000
     18 N14         -3.1510     2.4590    -0.0320 ns         1 YEX      -0.358400
     19 N17         -1.7910     0.8050    -0.0240 n          1 YEX      -0.026800
     20 O16         -0.9040     3.0240    -0.0270 o          1 YEX      -0.566000
     21 H1           6.4410    -0.2780     0.0030 ha         1 YEX       0.134000
     22 H2           4.3760    -1.9030     0.0020 ha         1 YEX       0.130000
     23 H5           5.5060     2.2750    -0.0070 h4         1 YEX       0.148000
     24 H8          -0.0380    -3.4720    -0.0070 ha         1 YEX       0.118000
     25 H19          0.8860     1.4070    -0.0180 ha         1 YEX       0.144000
     26 H4           2.9390     2.0690    -0.0130 hn         1 YEX       0.353000
     27 H11         -4.4150    -1.3640    -0.0250 ha         1 YEX       0.144000
     28 H201        -2.2710    -3.9330     0.8760 hc         1 YEX       0.051700
     29 H202        -3.7610    -3.6190    -0.0170 hc         1 YEX       0.051700
     30 H203        -2.2660    -3.9380    -0.9000 hc         1 YEX       0.051700
     31 H14         -3.4950     3.4180    -0.0360 hn         1 YEX       0.494000
     32 H7           2.2650    -2.6700    -0.0020 ha         1 YEX       0.124000
@<TRIPOS>BOND
     1     1     4 1   
     2     1     6 2   
     3     1    21 1   
     4     2     3 ar  
     5     2     7 ar  
     6     2    32 1   
     7     3     8 ar  
     8     3    24 1   
     9     4    10 2   
    10     4    22 1   
    11     5     7 ar  
    12     5     9 ar  
    13     5    25 1   
    14     6    17 1   
    15     6    23 1   
    16     7    10 1   
    17     8     9 ar  
    18     8    12 1   
    19     9    19 1   
    20    10    17 1   
    21    11    12 2   
    22    11    13 1   
    23    11    27 1   
    24    12    15 1   
    25    13    16 2   
    26    13    19 1   
    27    14    18 1   
    28    14    19 1   
    29    14    20 2   
    30    15    28 1   
    31    15    29 1   
    32    15    30 1   
    33    16    18 1   
    34    17    26 1   
    35    18    31 1   
@<TRIPOS>SUBSTRUCTURE
     1 YEX         1 TEMP              0 ****  ****    0 ROOT
