@<TRIPOS>MOLECULE
YEX
   32    35     1     0     0
SMALL
abcg2


@<TRIPOS>ATOM
      1 C1           5.3570     0.0510    -0.0180 cc         1 YEX      -0.187000
      2 C7           1.4260    -1.9290     0.0020 ca         1 YEX      -0.123000
      3 C8           0.1220    -2.3680    -0.0010 ca         1 YEX      -0.065000
      4 C2           4.2750    -0.8540    -0.0260 cc         1 YEX      -0.144000
      5 C19          0.6630     0.3470    -0.0170 ca         1 YEX      -0.149000
      6 C5           4.8210     1.3180     0.0070 cd         1 YEX      -0.180000
      7 C6           1.7220    -0.5590    -0.0070 ca         1 YEX       0.050000
      8 C9          -0.9570    -1.4760    -0.0120 ca         1 YEX      -0.100000
      9 C18         -0.6520    -0.1020    -0.0190 ca         1 YEX       0.042000
     10 C3           3.1050    -0.1150    -0.0060 cd         1 YEX      -0.149000
     11 C11         -3.3390    -1.0320    -0.0270 cc         1 YEX      -0.120000
     12 C10         -2.3360    -1.9350    -0.0160 cd         1 YEX      -0.010300
     13 C12         -3.0390     0.3600    -0.0340 cc         1 YEX      -0.035000
     14 C15         -1.7380     2.1790    -0.0340 c          1 YEX       0.525800
     15 C20         -2.6280    -3.4010    -0.0080 c3         1 YEX      -0.055800
     16 N13         -3.8630     1.3590    -0.0430 nd         1 YEX      -0.198600
     17 N4           3.4720     1.2020     0.0130 na         1 YEX      -0.092000
     18 N14         -3.0610     2.4510    -0.0460 ns         1 YEX      -0.358400
     19 N17         -1.7270     0.7830    -0.0280 n          1 YEX      -0.026800
     20 O16         -0.7940     2.9500    -0.0300 o          1 YEX      -0.566000
     21 H1           6.4070    -0.1930    -0.0310 ha         1 YEX       0.134000
     22 H2           4.3440    -1.9300    -0.0460 ha         1 YEX       0.130000
     23 H5           5.2960     2.2850     0.0220 h4         1 YEX       0.148000
     24 H8          -0.0640    -3.4330     0.0060 ha         1 YEX       0.118000
     25 H19          0.8410     1.4100    -0.0260 ha         1 YEX       0.144000
     26 H4           2.8450     1.9890     0.0380 hn         1 YEX       0.353000
     27 H11         -4.3790    -1.3270    -0.0290 ha         1 YEX       0.144000
     28 H201        -2.2070    -3.8880     0.8740 hc         1 YEX       0.051700
     29 H202        -3.7010    -3.5810    -0.0110 hc         1 YEX       0.051700
     30 H203        -2.2020    -3.8970    -0.8820 hc         1 YEX       0.051700
     31 H14         -3.4610     3.3760    -0.0400 hn         1 YEX       0.494000
     32 H7           2.2240    -2.6590     0.0110 ha         1 YEX       0.124000
@<TRIPOS>BOND
     1     1     4 1   
     2     1     6 2   
     3     1    21 1   
     4     2     3 ar  
     5     2     7 ar  
     6     2    32 1   
     7     3     8 ar  
     8     3    24 1   
     9     4    10 2   
    10     4    22 1   
    11     5     7 ar  
    12     5     9 ar  
    13     5    25 1   
    14     6    17 1   
    15     6    23 1   
    16     7    10 1   
    17     8     9 ar  
    18     8    12 1   
    19     9    19 1   
    20    10    17 1   
    21    11    12 2   
    22    11    13 1   
    23    11    27 1   
    24    12    15 1   
    25    13    16 2   
    26    13    19 1   
    27    14    18 1   
    28    14    19 1   
    29    14    20 2   
    30    15    28 1   
    31    15    29 1   
    32    15    30 1   
    33    16    18 1   
    34    17    26 1   
    35    18    31 1   
@<TRIPOS>SUBSTRUCTURE
     1 YEX         1 TEMP              0 ****  ****    0 ROOT
