@<TRIPOS>MOLECULE
YEY
   26    28     1     0     0
SMALL
No Charge or Current Charge


@<TRIPOS>ATOM
      1 C4          71.3480    39.2560    35.5360 ca         1 YEY      -0.097000
      2 C5          72.5650    38.7420    36.0390 ca         1 YEY      -0.002000
      3 C6          72.5990    38.2530    37.3650 ca         1 YEY      -0.118000
      4 C7          71.4430    38.2600    38.1670 ca         1 YEY      -0.103000
      5 C8          73.7860    38.7200    35.2220 cc         1 YEY      -0.129000
      6 C9          75.9580    38.5110    34.5300 cc         1 YEY      -0.194000
      7 C10         75.1670    38.7950    33.4480 cd         1 YEY      -0.181000
      8 C11         73.8260    38.9210    33.8670 cd         1 YEY      -0.157000
      9 N           75.0950    38.4570    35.6300 na         1 YEY      -0.101000
     10 C3          70.1950    39.2750    36.3370 ca         1 YEY       0.062100
     11 O           69.0250    39.8040    35.8260 os         1 YEY      -0.329100
     12 C2          70.2370    38.7580    37.6540 ca         1 YEY       0.053100
     13 O1          69.1040    38.7400    38.4440 os         1 YEY      -0.328100
     14 C1          67.8350    38.9600    37.7910 c6         1 YEY       0.117600
     15 C           67.9650    40.1030    36.7610 c6         1 YEY       0.118600
     16 H41         71.2870    39.6610    34.5310 ha         1 YEY       0.134000
     17 H61         73.5200    37.8530    37.7790 ha         1 YEY       0.110000
     18 H71         71.4810    37.8700    39.1810 ha         1 YEY       0.127000
     19 H91         77.0260    38.3430    34.6100 h4         1 YEY       0.144000
     20 H101        75.5190    38.9020    32.4250 ha         1 YEY       0.132000
     21 H111        72.9850    39.1300    33.2150 ha         1 YEY       0.132000
     22 H1          75.3800    38.2610    36.5850 hn         1 YEY       0.342000
     23 H11         67.0720    39.2000    38.5450 h1         1 YEY       0.067200
     24 H12         67.5330    38.0360    37.2770 h1         1 YEY       0.067200
     25 HC2         68.2020    41.0410    37.2830 h1         1 YEY       0.067200
     26 HC3         67.0230    40.2410    36.2120 h1         1 YEY       0.067200
@<TRIPOS>BOND
     1     1     2 ar  
     2     1    10 ar  
     3     1    16 1   
     4     2     3 ar  
     5     2     5 1   
     6     3     4 ar  
     7     3    17 1   
     8     4    12 ar  
     9     4    18 1   
    10     5     8 2   
    11     5     9 1   
    12     6     7 2   
    13     6     9 1   
    14     6    19 1   
    15     7     8 1   
    16     7    20 1   
    17     8    21 1   
    18     9    22 1   
    19    10    11 1   
    20    10    12 ar  
    21    11    15 1   
    22    12    13 1   
    23    13    14 1   
    24    14    15 1   
    25    14    23 1   
    26    14    24 1   
    27    15    25 1   
    28    15    26 1   
@<TRIPOS>SUBSTRUCTURE
     1 YEY         1 TEMP              0 ****  ****    0 ROOT
