@<TRIPOS>MOLECULE
YEY
   26    28     1     0     0
SMALL
bcc


@<TRIPOS>ATOM
      1 C4          71.3400    39.2860    35.5690 ca         1 YEY      -0.115000
      2 C5          72.5310    38.7210    36.0260 ca         1 YEY      -0.002000
      3 C6          72.5530    38.1780    37.3130 ca         1 YEY      -0.136000
      4 C7          71.4160    38.1860    38.1030 ca         1 YEY      -0.121000
      5 C8          73.7060    38.7130    35.1600 cc         1 YEY      -0.078300
      6 C9          75.8750    38.6330    34.6180 cc         1 YEY      -0.161300
      7 C10         75.1690    38.7080    33.4420 cd         1 YEY      -0.199000
      8 C11         73.7970    38.7580    33.7830 cd         1 YEY      -0.175000
      9 N           74.9810    38.6330    35.6410 na         1 YEY      -0.152100
     10 C3          70.1990    39.2940    36.3550 ca         1 YEY       0.062100
     11 O           69.0790    39.8660    35.8550 os         1 YEY      -0.305900
     12 C2          70.2300    38.7330    37.6370 ca         1 YEY       0.053100
     13 O1          69.1360    38.7050    38.4350 os         1 YEY      -0.304900
     14 C1          67.9180    38.9640    37.7560 c6         1 YEY       0.094400
     15 C           68.0800    40.1420    36.8250 c6         1 YEY       0.095400
     16 H41         71.2910    39.7460    34.5890 ha         1 YEY       0.152000
     17 H61         73.4490    37.7130    37.7040 ha         1 YEY       0.128000
     18 H71         71.4400    37.7510    39.0950 ha         1 YEY       0.145000
     19 H91         76.9350    38.5890    34.8030 h4         1 YEY       0.162000
     20 H101        75.5910    38.7180    32.4490 ha         1 YEY       0.150000
     21 H111        72.9640    38.7960    33.0980 ha         1 YEY       0.150000
     22 H1          75.2370    38.6290    36.6140 hn         1 YEY       0.291700
     23 H11         67.1660    39.1790    38.5140 h1         1 YEY       0.067200
     24 H12         67.6000    38.0770    37.1980 h1         1 YEY       0.067200
     25 HC2         68.3430    41.0420    37.3910 h1         1 YEY       0.067200
     26 HC3         67.1520    40.3330    36.2870 h1         1 YEY       0.067200
@<TRIPOS>BOND
     1     1     2 ar  
     2     1    10 ar  
     3     1    16 1   
     4     2     3 ar  
     5     2     5 1   
     6     3     4 ar  
     7     3    17 1   
     8     4    12 ar  
     9     4    18 1   
    10     5     8 2   
    11     5     9 1   
    12     6     7 2   
    13     6     9 1   
    14     6    19 1   
    15     7     8 1   
    16     7    20 1   
    17     8    21 1   
    18     9    22 1   
    19    10    11 1   
    20    10    12 ar  
    21    11    15 1   
    22    12    13 1   
    23    13    14 1   
    24    14    15 1   
    25    14    23 1   
    26    14    24 1   
    27    15    25 1   
    28    15    26 1   
@<TRIPOS>SUBSTRUCTURE
     1 YEY         1 TEMP              0 ****  ****    0 ROOT
