@<TRIPOS>MOLECULE
YEZ
   20    22     1     0     0
SMALL
No Charge or Current Charge


@<TRIPOS>ATOM
      1 N1         -32.7050   -16.5230    -7.7300 nc         1 YEZ      -0.420300
      2 C4         -32.3680   -18.1080    -3.3530 ca         1 YEZ      -0.052000
      3 C5         -32.2370   -18.9890    -2.2580 ca         1 YEZ      -0.126000
      4 C6         -32.1120   -20.3850    -2.4680 ca         1 YEZ      -0.081000
      5 C7         -32.1160   -20.9180    -3.7780 ca         1 YEZ      -0.099000
      6 C8         -32.2470   -20.0280    -4.8520 ca         1 YEZ       0.074100
      7 C          -32.4970   -18.9450    -8.3120 c          1 YEZ       0.568200
      8 C9         -32.4160   -19.1480    -6.8490 cc         1 YEZ      -0.023100
      9 C2         -32.4760   -18.1150    -5.9380 cd         1 YEZ      -0.164800
     10 C1         -32.6270   -16.7590    -6.4120 cd         1 YEZ       0.399500
     11 N          -32.6390   -17.5970    -8.6080 ns         1 YEZ      -0.238900
     12 O1         -32.2700   -20.3730    -6.1950 os         1 YEZ      -0.132200
     13 C3         -32.3680   -18.6750    -4.6320 ca         1 YEZ      -0.100800
     14 H2         -32.4650   -17.0340    -3.2070 ha         1 YEZ       0.124000
     15 H3         -32.2330   -18.5930    -1.2440 ha         1 YEZ       0.121000
     16 H4         -32.0120   -21.0530    -1.6150 ha         1 YEZ       0.122000
     17 H5         -32.0200   -21.9870    -3.9500 ha         1 YEZ       0.140000
     18 H1         -32.6830   -15.8910    -5.7670 h4         1 YEZ       0.051800
     19 H          -32.7010   -17.3850    -9.6000 hn         1 YEZ       0.356500
     20 O          -32.4480   -19.8210    -9.1660 o          1 YEZ      -0.519000
@<TRIPOS>BOND
     1     1    10 2   
     2     1    11 1   
     3     2     3 ar  
     4     2    13 ar  
     5     2    14 1   
     6     3     4 ar  
     7     3    15 1   
     8     4     5 ar  
     9     4    16 1   
    10     5     6 ar  
    11     5    17 1   
    12     6    12 1   
    13     6    13 ar  
    14     7     8 1   
    15     7    11 1   
    16     7    20 2   
    17     8     9 2   
    18     8    12 1   
    19     9    10 1   
    20     9    13 1   
    21    10    18 1   
    22    11    19 1   
@<TRIPOS>SUBSTRUCTURE
     1 YEZ         1 TEMP              0 ****  ****    0 ROOT
