@<TRIPOS>MOLECULE
YEZ
   20    22     1     0     0
SMALL
abcg2


@<TRIPOS>ATOM
      1 N1         -32.7050   -16.5520    -7.7710 nc         1 YEZ      -0.420300
      2 C4         -32.3660   -18.1150    -3.3210 ca         1 YEZ      -0.052000
      3 C5         -32.2340   -19.0160    -2.2760 ca         1 YEZ      -0.126000
      4 C6         -32.1130   -20.3940    -2.5120 ca         1 YEZ      -0.081000
      5 C7         -32.1180   -20.9170    -3.8000 ca         1 YEZ      -0.099000
      6 C8         -32.2490   -20.0020    -4.8280 ca         1 YEZ       0.074100
      7 C          -32.4900   -18.9700    -8.2390 c          1 YEZ       0.568200
      8 C9         -32.4170   -19.1160    -6.8160 cc         1 YEZ      -0.023100
      9 C2         -32.4830   -18.0520    -5.9470 cd         1 YEZ      -0.164800
     10 C1         -32.6310   -16.7470    -6.4850 cd         1 YEZ       0.399500
     11 N          -32.6340   -17.6300    -8.5730 ns         1 YEZ      -0.238900
     12 O1         -32.2770   -20.3050    -6.1750 os         1 YEZ      -0.132200
     13 C3         -32.3730   -18.6180    -4.6240 ca         1 YEZ      -0.100800
     14 H2         -32.4600   -17.0530    -3.1360 ha         1 YEZ       0.124000
     15 H3         -32.2250   -18.6540    -1.2560 ha         1 YEZ       0.121000
     16 H4         -32.0120   -21.0680    -1.6710 ha         1 YEZ       0.122000
     17 H5         -32.0260   -21.9770    -3.9900 ha         1 YEZ       0.140000
     18 H1         -32.6900   -15.8670    -5.8590 h4         1 YEZ       0.051800
     19 H          -32.6970   -17.4190    -9.5610 hn         1 YEZ       0.356500
     20 O          -32.4380   -19.8540    -9.0950 o          1 YEZ      -0.519000
@<TRIPOS>BOND
     1     1    10 2   
     2     1    11 1   
     3     2     3 ar  
     4     2    13 ar  
     5     2    14 1   
     6     3     4 ar  
     7     3    15 1   
     8     4     5 ar  
     9     4    16 1   
    10     5     6 ar  
    11     5    17 1   
    12     6    12 1   
    13     6    13 ar  
    14     7     8 1   
    15     7    11 1   
    16     7    20 2   
    17     8     9 2   
    18     8    12 1   
    19     9    10 1   
    20     9    13 1   
    21    10    18 1   
    22    11    19 1   
@<TRIPOS>SUBSTRUCTURE
     1 YEZ         1 TEMP              0 ****  ****    0 ROOT
