@<TRIPOS>MOLECULE
YF2
   68    73     1     0     0
SMALL
No Charge or Current Charge


@<TRIPOS>ATOM
      1 C1          16.7210    16.4210     0.6430 c3         1 YF2      -0.094100
      2 C2          15.5990    15.5860     1.3520 c3         1 YF2       0.022400
      3 C3          15.8060    14.0820     0.9900 ca         1 YF2       0.331300
      4 C4          15.6490    13.0320     1.9310 ca         1 YF2      -0.132000
      5 C5          15.8450    11.6990     1.5360 ca         1 YF2      -0.077500
      6 C6          16.1980    11.4450     0.2040 ca         1 YF2      -0.159500
      7 C7          16.3430    12.5250    -0.6770 ca         1 YF2       0.340900
      8 N1          16.1530    13.8090    -0.3000 nb         1 YF2      -0.670000
      9 C8          14.2490    16.1260     0.7970 ca         1 YF2       0.331300
     10 N2          13.9690    17.4310     1.0720 nb         1 YF2      -0.670000
     11 C9          12.8310    17.9770     0.5880 ca         1 YF2       0.340900
     12 C10         11.9190    17.2610    -0.2020 ca         1 YF2      -0.159500
     13 C11         12.1870    15.9180    -0.5000 ca         1 YF2      -0.077500
     14 C12         13.3630    15.3440     0.0110 ca         1 YF2      -0.132000
     15 N3          15.7150    15.8070     2.8380 na         1 YF2      -0.078700
     16 C13         14.7140    15.5700     3.7960 ca         1 YF2      -0.021200
     17 C14         13.4170    15.0460     3.6290 ca         1 YF2      -0.123000
     18 C15         12.6000    14.8320     4.7640 ca         1 YF2       0.038000
     19 C16         11.2440    14.2760     4.6310 cc         1 YF2      -0.125000
     20 C17         10.7430    13.4450     5.6060 cd         1 YF2      -0.129000
     21 N4           9.5170    12.9520     5.1330 na         1 YF2       0.065000
     22 C18          8.6440    12.0240     5.8650 c3         1 YF2       0.059900
     23 C19          9.2750    13.4640     3.8530 cd         1 YF2      -0.256600
     24 C20         10.3320    14.2670     3.5530 cc         1 YF2      -0.027800
     25 C21         10.3670    14.9880     2.3170 cc         1 YF2      -0.211200
     26 C22          9.3280    14.8220     1.4190 cd         1 YF2      -0.078400
     27 N5           8.2780    13.9670     1.7460 ns         1 YF2      -0.377100
     28 C23          8.1440    13.2550     2.9210 c          1 YF2       0.590600
     29 O1           7.1800    12.5380     3.1410 o          1 YF2      -0.581000
     30 C24         13.1200    15.1210     6.0500 ca         1 YF2      -0.146000
     31 C25         14.4250    15.6230     6.2120 ca         1 YF2       0.291000
     32 N6          14.9810    15.8920     7.4590 nu         1 YF2      -0.870100
     33 S1          14.8260    15.0000     8.8480 s6         1 YF2       1.178100
     34 O2          13.4250    15.1040     9.2620 o          1 YF2      -0.531000
     35 C26         15.1890    13.3020     8.3680 c3         1 YF2      -0.336400
     36 C27         16.5880    13.1030     7.7330 c3         1 YF2      -0.071100
     37 O3          15.8940    15.4870     9.7220 o          1 YF2      -0.531000
     38 C28         15.1870    15.8400     5.0540 ca         1 YF2      -0.130800
     39 C29         16.5460    16.2800     4.9150 cc         1 YF2      -0.260200
     40 C30         16.8570    16.2350     3.5660 cd         1 YF2      -0.133100
     41 H2          16.7250    17.4620     0.9910 hc         1 YF2       0.059367
     42 H3          17.7140    15.9950     0.8320 hc         1 YF2       0.059367
     43 H1          16.5720    16.4450    -0.4430 hc         1 YF2       0.059367
     44 H4          15.3850    13.2270     2.9630 ha         1 YF2       0.140000
     45 H5          15.7280    10.8840     2.2470 ha         1 YF2       0.121500
     46 H6          16.3610    10.4290    -0.1470 ha         1 YF2       0.126500
     47 H7          16.6190    12.3600    -1.7180 h4         1 YF2       0.023100
     48 H8          12.6490    19.0220     0.8370 h4         1 YF2       0.023100
     49 H9          11.0210    17.7470    -0.5720 ha         1 YF2       0.126500
     50 H10         11.5010    15.3340    -1.1100 ha         1 YF2       0.121500
     51 H11         13.5680    14.3040    -0.2150 ha         1 YF2       0.140000
     52 H12         13.0660    14.7460     2.6510 ha         1 YF2       0.127000
     53 H13         11.1590    13.1380     6.5580 h4         1 YF2       0.155000
     54 H14          9.0810    11.7940     6.8450 h1         1 YF2       0.061367
     55 H15          7.6590    12.4840     6.0070 h1         1 YF2       0.061367
     56 H16          8.5340    11.0960     5.2920 h1         1 YF2       0.061367
     57 H17         11.1760    15.6790     2.1090 ha         1 YF2       0.205000
     58 H18          9.2450    15.3230     0.4580 h4         1 YF2       0.194000
     59 H19          7.5110    13.8360     1.0970 hn         1 YF2       0.324500
     60 H20         12.4940    14.9740     6.9210 ha         1 YF2       0.145000
     61 H21         15.9460    16.1800     7.4560 hn         1 YF2       0.500000
     62 H22         15.0950    12.7070     9.2830 h1         1 YF2       0.101200
     63 H23         14.4020    13.0070     7.6660 h1         1 YF2       0.101200
     64 H26         16.7490    12.0450     7.4940 hc         1 YF2       0.048367
     65 H24         16.6870    13.6750     6.8020 hc         1 YF2       0.048367
     66 H25         17.3820    13.4190     8.4210 hc         1 YF2       0.048367
     67 H27         17.2360    16.5770     5.7010 ha         1 YF2       0.202000
     68 H28         17.8000    16.4780     3.0850 h4         1 YF2       0.217000
@<TRIPOS>BOND
     1     1     2 1   
     2     1    41 1   
     3     1    42 1   
     4     1    43 1   
     5     2     3 1   
     6     2     9 1   
     7     2    15 1   
     8     3     4 ar  
     9     3     8 ar  
    10     4     5 ar  
    11     4    44 1   
    12     5     6 ar  
    13     5    45 1   
    14     6     7 ar  
    15     6    46 1   
    16     7     8 ar  
    17     7    47 1   
    18     9    10 ar  
    19     9    14 ar  
    20    10    11 ar  
    21    11    12 ar  
    22    11    48 1   
    23    12    13 ar  
    24    12    49 1   
    25    13    14 ar  
    26    13    50 1   
    27    14    51 1   
    28    15    16 1   
    29    15    40 1   
    30    16    17 ar  
    31    16    38 ar  
    32    17    18 ar  
    33    17    52 1   
    34    18    19 1   
    35    18    30 ar  
    36    19    20 2   
    37    19    24 1   
    38    20    21 1   
    39    20    53 1   
    40    21    22 1   
    41    21    23 1   
    42    22    54 1   
    43    22    55 1   
    44    22    56 1   
    45    23    24 2   
    46    23    28 1   
    47    24    25 1   
    48    25    26 2   
    49    25    57 1   
    50    26    27 1   
    51    26    58 1   
    52    27    28 1   
    53    27    59 1   
    54    28    29 2   
    55    30    31 ar  
    56    30    60 1   
    57    31    32 1   
    58    31    38 ar  
    59    32    33 1   
    60    32    61 1   
    61    33    34 2   
    62    33    35 1   
    63    33    37 2   
    64    35    36 1   
    65    35    62 1   
    66    35    63 1   
    67    36    64 1   
    68    36    65 1   
    69    36    66 1   
    70    38    39 1   
    71    39    40 2   
    72    39    67 1   
    73    40    68 1   
@<TRIPOS>SUBSTRUCTURE
     1 YF2         1 TEMP              0 ****  ****    0 ROOT
