@<TRIPOS>MOLECULE
YF2
   68    73     1     0     0
SMALL
abcg2


@<TRIPOS>ATOM
      1 C1          16.7500    16.1520     0.7270 c3         1 YF2      -0.094100
      2 C2          15.5890    15.4330     1.4310 c3         1 YF2       0.022400
      3 C3          15.7560    13.9350     1.1690 ca         1 YF2       0.331300
      4 C4          15.9290    13.0040     2.1880 ca         1 YF2      -0.132000
      5 C5          16.1390    11.6750     1.8490 ca         1 YF2      -0.077500
      6 C6          16.1740    11.3130     0.5140 ca         1 YF2      -0.159500
      7 C7          16.0020    12.3140    -0.4300 ca         1 YF2       0.340900
      8 N1          15.8060    13.5850    -0.1120 nb         1 YF2      -0.670000
      9 C8          14.2940    16.0390     0.8630 ca         1 YF2       0.331300
     10 N2          14.1070    17.3080     1.2100 nb         1 YF2      -0.670000
     11 C9          13.0460    17.9530     0.7500 ca         1 YF2       0.340900
     12 C10         12.1080    17.3720    -0.0910 ca         1 YF2      -0.159500
     13 C11         12.2980    16.0490    -0.4490 ca         1 YF2      -0.077500
     14 C12         13.4060    15.3670     0.0340 ca         1 YF2      -0.132000
     15 N3          15.6210    15.7020     2.8650 na         1 YF2      -0.078700
     16 C13         14.6180    15.4110     3.7600 ca         1 YF2      -0.021200
     17 C14         13.3740    14.8120     3.5670 ca         1 YF2      -0.123000
     18 C15         12.5550    14.6260     4.6720 ca         1 YF2       0.038000
     19 C16         11.2230    14.0370     4.5180 cc         1 YF2      -0.125000
     20 C17         10.6210    13.1360     5.3740 cd         1 YF2      -0.129000
     21 N4           9.3840    12.8170     4.9330 na         1 YF2       0.065000
     22 C18          8.4920    11.8840     5.5910 c3         1 YF2       0.059900
     23 C19          9.1490    13.5100     3.7770 cd         1 YF2      -0.256600
     24 C20         10.2740    14.2840     3.4900 cc         1 YF2      -0.027800
     25 C21         10.2620    15.1440     2.3560 cc         1 YF2      -0.211200
     26 C22          9.1500    15.1420     1.5910 cd         1 YF2      -0.078400
     27 N5           8.0760    14.3480     1.8900 ns         1 YF2      -0.377100
     28 C23          7.9660    13.4980     2.9690 c          1 YF2       0.590600
     29 O1           6.9480    12.8340     3.1610 o          1 YF2      -0.581000
     30 C24         12.9910    15.0120     5.9550 ca         1 YF2      -0.146000
     31 C25         14.2440    15.5560     6.1510 ca         1 YF2       0.291000
     32 N6          14.7040    15.9220     7.4350 nu         1 YF2      -0.870100
     33 S1          14.7850    14.8100     8.6740 s6         1 YF2       1.178100
     34 O2          13.4320    14.3910     9.0020 o          1 YF2      -0.531000
     35 C26         15.6520    13.3890     8.0130 c3         1 YF2      -0.336400
     36 C27         17.0770    13.7000     7.6040 c3         1 YF2      -0.071100
     37 O3          15.5960    15.4480     9.6990 o          1 YF2      -0.531000
     38 C28         15.0750    15.7740     5.0430 ca         1 YF2      -0.130800
     39 C29         16.3890    16.3050     4.8880 cc         1 YF2      -0.260200
     40 C30         16.6750    16.2410     3.5600 cd         1 YF2      -0.133100
     41 H2          16.7170    17.2230     0.9190 hc         1 YF2       0.059367
     42 H3          17.7180    15.7580     1.0370 hc         1 YF2       0.059367
     43 H1          16.6580    15.9920    -0.3440 hc         1 YF2       0.059367
     44 H4          15.9090    13.2890     3.2300 ha         1 YF2       0.140000
     45 H5          16.2750    10.9350     2.6270 ha         1 YF2       0.121500
     46 H6          16.3350    10.2890     0.2070 ha         1 YF2       0.126500
     47 H7          16.0290    12.0820    -1.4880 h4         1 YF2       0.023100
     48 H8          12.9350    18.9850     1.0640 h4         1 YF2       0.023100
     49 H9          11.2590    17.9410    -0.4450 ha         1 YF2       0.126500
     50 H10         11.5920    15.5420    -1.0940 ha         1 YF2       0.121500
     51 H11         13.5580    14.3350    -0.2380 ha         1 YF2       0.140000
     52 H12         13.0550    14.4680     2.5940 ha         1 YF2       0.127000
     53 H13         11.0120    12.6840     6.2720 h4         1 YF2       0.155000
     54 H14          8.9670    11.5520     6.5100 h1         1 YF2       0.061367
     55 H15          7.5470    12.3590     5.8390 h1         1 YF2       0.061367
     56 H16          8.3000    11.0170     4.9640 h1         1 YF2       0.061367
     57 H17         11.0910    15.7870     2.1070 ha         1 YF2       0.205000
     58 H18          9.0370    15.7570     0.7110 h4         1 YF2       0.194000
     59 H19          7.2720    14.3910     1.2790 hn         1 YF2       0.324500
     60 H20         12.3160    14.9030     6.7920 ha         1 YF2       0.145000
     61 H21         15.5000    16.5490     7.4440 hn         1 YF2       0.500000
     62 H22         15.6100    12.6440     8.8100 h1         1 YF2       0.101200
     63 H23         15.0530    13.0180     7.1790 h1         1 YF2       0.101200
     64 H26         17.5510    12.7830     7.2590 hc         1 YF2       0.048367
     65 H24         17.1230    14.4150     6.7830 hc         1 YF2       0.048367
     66 H25         17.6610    14.0840     8.4380 hc         1 YF2       0.048367
     67 H27         17.0450    16.6940     5.6510 ha         1 YF2       0.202000
     68 H28         17.5750    16.5540     3.0600 h4         1 YF2       0.217000
@<TRIPOS>BOND
     1     1     2 1   
     2     1    41 1   
     3     1    42 1   
     4     1    43 1   
     5     2     3 1   
     6     2     9 1   
     7     2    15 1   
     8     3     4 ar  
     9     3     8 ar  
    10     4     5 ar  
    11     4    44 1   
    12     5     6 ar  
    13     5    45 1   
    14     6     7 ar  
    15     6    46 1   
    16     7     8 ar  
    17     7    47 1   
    18     9    10 ar  
    19     9    14 ar  
    20    10    11 ar  
    21    11    12 ar  
    22    11    48 1   
    23    12    13 ar  
    24    12    49 1   
    25    13    14 ar  
    26    13    50 1   
    27    14    51 1   
    28    15    16 1   
    29    15    40 1   
    30    16    17 ar  
    31    16    38 ar  
    32    17    18 ar  
    33    17    52 1   
    34    18    19 1   
    35    18    30 ar  
    36    19    20 2   
    37    19    24 1   
    38    20    21 1   
    39    20    53 1   
    40    21    22 1   
    41    21    23 1   
    42    22    54 1   
    43    22    55 1   
    44    22    56 1   
    45    23    24 2   
    46    23    28 1   
    47    24    25 1   
    48    25    26 2   
    49    25    57 1   
    50    26    27 1   
    51    26    58 1   
    52    27    28 1   
    53    27    59 1   
    54    28    29 2   
    55    30    31 ar  
    56    30    60 1   
    57    31    32 1   
    58    31    38 ar  
    59    32    33 1   
    60    32    61 1   
    61    33    34 2   
    62    33    35 1   
    63    33    37 2   
    64    35    36 1   
    65    35    62 1   
    66    35    63 1   
    67    36    64 1   
    68    36    65 1   
    69    36    66 1   
    70    38    39 1   
    71    39    40 2   
    72    39    67 1   
    73    40    68 1   
@<TRIPOS>SUBSTRUCTURE
     1 YF2         1 TEMP              0 ****  ****    0 ROOT
