@<TRIPOS>MOLECULE
YF3
   30    30     1     0     0
SMALL
No Charge or Current Charge


@<TRIPOS>ATOM
      1 N1           0.9080     1.4360     2.6380 nb         1 YF3      -0.220000
      2 C2           0.7780     0.3000     3.3540 ca         1 YF3       0.178300
      3 CM2          1.5260     0.2300     4.6740 c3         1 YF3      -0.134400
      4 N3           0.0380    -0.7750     3.0140 nb         1 YF3      -0.275000
      5 C4          -0.6250    -0.7040     1.8520 ca         1 YF3       0.389900
      6 N4          -1.3530    -1.8120     1.5530 nv         1 YF3      -1.079900
      7 C5          -0.5620     0.4270     1.0190 ca         1 YF3      -0.269300
      8 C6           0.2350     1.4940     1.4710 ca         1 YF3       0.150900
      9 C7          -1.3080     0.5520    -0.2950 c3         1 YF3       0.230100
     10 N2          -0.3620     0.3590    -1.4030 n7         1 YF3      -0.865400
     11 C3          -0.9400     0.3230    -2.7650 c3         1 YF3       0.176500
     12 CM4         -1.5030     1.7060    -3.1630 c3         1 YF3      -0.089100
     13 C1           0.1320    -0.1610    -3.7780 c3         1 YF3       0.076600
     14 HM21         0.8990     0.5940     5.4950 hc         1 YF3       0.057367
     15 HM22         1.8260    -0.7980     4.9110 hc         1 YF3       0.057367
     16 HM23         2.4370     0.8400     4.6520 hc         1 YF3       0.057367
     17 H4'1        -1.1970    -2.6510     2.1070 hn         1 YF3       0.491500
     18 H4'2        -1.6840    -1.9480     0.6030 hn         1 YF3       0.491500
     19 H6           0.3380     2.4120     0.8930 h4         1 YF3       0.031100
     20 H7'1        -1.7660     1.5490    -0.3440 h1         1 YF3       0.030700
     21 H7'2        -2.1230    -0.1820    -0.3470 h1         1 YF3       0.030700
     22 HN3          0.0860    -0.5490    -1.2480 hn         1 YF3       0.415000
     23 H4          -1.7650    -0.4020    -2.7950 h1         1 YF3       0.033700
     24 HM41        -0.7300     2.4810    -3.0870 hc         1 YF3       0.041700
     25 HM42        -1.8670     1.6880    -4.1970 hc         1 YF3       0.041700
     26 HM43        -2.3450     1.9920    -2.5230 hc         1 YF3       0.041700
     27 HS1          1.7540    -1.3220    -2.4060 hs         1 YF3       0.217800
     28 H21         -0.3330    -0.2490    -4.7680 h1         1 YF3       0.077200
     29 H22          0.9270     0.5920    -3.8500 h1         1 YF3       0.077200
     30 S1           0.9170    -1.7990    -3.3610 sh         1 YF3      -0.462800
@<TRIPOS>BOND
     1     1     2 ar  
     2     1     8 ar  
     3     2     3 1   
     4     2     4 ar  
     5     3    14 1   
     6     3    15 1   
     7     3    16 1   
     8     4     5 ar  
     9     5     6 1   
    10     5     7 ar  
    11     6    17 1   
    12     6    18 1   
    13     7     8 ar  
    14     7     9 1   
    15     8    19 1   
    16     9    10 1   
    17     9    20 1   
    18     9    21 1   
    19    10    11 1   
    20    10    22 1   
    21    11    12 1   
    22    11    13 1   
    23    11    23 1   
    24    12    24 1   
    25    12    25 1   
    26    12    26 1   
    27    13    28 1   
    28    13    29 1   
    29    13    30 1   
    30    27    30 1   
@<TRIPOS>SUBSTRUCTURE
     1 YF3         1 TEMP              0 ****  ****    0 ROOT
