@<TRIPOS>MOLECULE
YF3
   30    30     1     0     0
SMALL
bcc


@<TRIPOS>ATOM
      1 N1           1.4210     0.7820     2.3320 nb         1 YF3      -0.746000
      2 C2           0.7940     0.2230     3.3540 ca         1 YF3       0.704300
      3 CM2          1.4290     0.3200     4.7070 c3         1 YF3      -0.134400
      4 N3          -0.3630    -0.4250     3.2880 nb         1 YF3      -0.801000
      5 C4          -0.9590    -0.5280     2.1020 ca         1 YF3       0.718200
      6 N4          -2.1520    -1.1490     2.0650 nv         1 YF3      -0.969500
      7 C5          -0.3730     0.0230     0.9370 ca         1 YF3      -0.399900
      8 C6           0.8210     0.6680     1.1400 ca         1 YF3       0.479200
      9 C7          -1.0430    -0.0900    -0.4030 c3         1 YF3       0.230100
     10 N2          -0.1710     0.3210    -1.4820 n7         1 YF3      -0.810200
     11 C3          -0.8100     0.3170    -2.7890 c3         1 YF3       0.176500
     12 CM4         -1.7620     1.4980    -2.9400 c3         1 YF3      -0.089100
     13 C1           0.2490     0.4080    -3.8810 c3         1 YF3       0.028700
     14 HM21         0.7480     0.7890     5.4180 hc         1 YF3       0.057367
     15 HM22         1.6600    -0.6730     5.0950 hc         1 YF3       0.057367
     16 HM23         2.3470     0.9000     4.6670 hc         1 YF3       0.057367
     17 H4'1        -2.4610    -1.6500     2.8810 hn         1 YF3       0.436300
     18 H4'2        -2.5900    -1.3900     1.1940 hn         1 YF3       0.436300
     19 H6           1.3310     1.1250     0.2990 h4         1 YF3       0.031100
     20 H7'1        -1.9360     0.5420    -0.3990 h1         1 YF3       0.030700
     21 H7'2        -1.4110    -1.1210    -0.5450 h1         1 YF3       0.030700
     22 HN3          0.6040    -0.3350    -1.5110 hn         1 YF3       0.359800
     23 H4          -1.3810    -0.6120    -2.9520 h1         1 YF3       0.033700
     24 HM41        -1.2230     2.4420    -2.8430 hc         1 YF3       0.041700
     25 HM42        -2.2410     1.4790    -3.9200 hc         1 YF3       0.041700
     26 HM43        -2.5570     1.4850    -2.1940 hc         1 YF3       0.041700
     27 HS1          2.3700    -0.4790    -3.1450 hs         1 YF3       0.217800
     28 H21         -0.2390     0.4190    -4.8550 h1         1 YF3       0.077200
     29 H22          0.8220     1.3320    -3.7920 h1         1 YF3       0.077200
     30 S1           1.4130    -0.9960    -3.9230 sh         1 YF3      -0.414900
@<TRIPOS>BOND
     1     1     2 ar  
     2     1     8 ar  
     3     2     3 1   
     4     2     4 ar  
     5     3    14 1   
     6     3    15 1   
     7     3    16 1   
     8     4     5 ar  
     9     5     6 1   
    10     5     7 ar  
    11     6    17 1   
    12     6    18 1   
    13     7     8 ar  
    14     7     9 1   
    15     8    19 1   
    16     9    10 1   
    17     9    20 1   
    18     9    21 1   
    19    10    11 1   
    20    10    22 1   
    21    11    12 1   
    22    11    13 1   
    23    11    23 1   
    24    12    24 1   
    25    12    25 1   
    26    12    26 1   
    27    13    28 1   
    28    13    29 1   
    29    13    30 1   
    30    27    30 1   
@<TRIPOS>SUBSTRUCTURE
     1 YF3         1 TEMP              0 ****  ****    0 ROOT
