@<TRIPOS>MOLECULE
YF4
   29    29     1     0     0
SMALL
No Charge or Current Charge


@<TRIPOS>ATOM
      1 N1           1.4610     0.8390    -1.8870 nb         1 YF4      -0.220000
      2 C2           0.6730     0.1510    -2.7380 ca         1 YF4       0.175300
      3 CM2          1.1910    -0.0440    -4.1520 c3         1 YF4      -0.134400
      4 N3          -0.5280    -0.3900    -2.4480 nb         1 YF4      -0.273000
      5 C4          -0.9770    -0.2220    -1.1970 ca         1 YF4       0.382900
      6 N4          -2.1900    -0.7870    -0.9560 nv         1 YF4      -1.074900
      7 C5          -0.2430     0.4780    -0.2240 ca         1 YF4      -0.266300
      8 C6           0.9980     1.0020    -0.6320 ca         1 YF4       0.152900
      9 C7          -0.7190     0.7010     1.2040 c3         1 YF4       0.238100
     10 CM4          0.8570     0.0600     4.6590 c3         1 YF4      -0.091100
     11 C3          -0.1620     0.4980     3.5870 c3         1 YF4       0.169800
     12 N2           0.1500     0.0440     2.2080 n3         1 YF4      -0.720600
     13 C1           0.1730    -1.4340     2.0620 c3         1 YF4       0.147100
     14 HM21         1.7600    -0.9770    -4.2320 hc         1 YF4       0.057033
     15 HM22         0.3700    -0.0890    -4.8770 hc         1 YF4       0.057033
     16 HM23         1.8510     0.7780    -4.4550 hc         1 YF4       0.057033
     17 H4'1        -2.5630    -1.4290    -1.6510 hn         1 YF4       0.487000
     18 H4'2        -2.4810    -0.9400     0.0050 hn         1 YF4       0.487000
     19 H6           1.6330     1.5600     0.0550 h4         1 YF4       0.037100
     20 H7'1        -1.7560     0.3610     1.3270 h1         1 YF4       0.030200
     21 H7'2        -0.7270     1.7860     1.3800 h1         1 YF4       0.030200
     22 HM41         0.6240     0.5420     5.6160 hc         1 YF4       0.039033
     23 HM42         0.8310    -1.0240     4.8150 hc         1 YF4       0.039033
     24 HM43         1.8730     0.3510     4.3680 hc         1 YF4       0.039033
     25 H41         -1.1590     0.1420     3.8840 h1         1 YF4       0.028200
     26 H42         -0.1980     1.5960     3.6050 h1         1 YF4       0.028200
     27 H21          0.4410    -1.7270     1.0380 h1         1 YF4       0.032700
     28 H22          0.9170    -1.8880     2.7290 h1         1 YF4       0.032700
     29 H23         -0.8090    -1.8660     2.2950 h1         1 YF4       0.032700
@<TRIPOS>BOND
     1     1     2 ar  
     2     1     8 ar  
     3     2     3 1   
     4     2     4 ar  
     5     3    14 1   
     6     3    15 1   
     7     3    16 1   
     8     4     5 ar  
     9     5     6 1   
    10     5     7 ar  
    11     6    17 1   
    12     6    18 1   
    13     7     8 ar  
    14     7     9 1   
    15     8    19 1   
    16     9    12 1   
    17     9    20 1   
    18     9    21 1   
    19    10    11 1   
    20    10    22 1   
    21    10    23 1   
    22    10    24 1   
    23    11    12 1   
    24    11    25 1   
    25    11    26 1   
    26    12    13 1   
    27    13    27 1   
    28    13    28 1   
    29    13    29 1   
@<TRIPOS>SUBSTRUCTURE
     1 YF4         1 TEMP              0 ****  ****    0 ROOT
