@<TRIPOS>MOLECULE
YF4
   29    29     1     0     0
SMALL
bcc


@<TRIPOS>ATOM
      1 N1           1.5370     0.3560    -1.7230 nb         1 YF4      -0.746000
      2 C2           0.6700     0.1550    -2.7050 ca         1 YF4       0.701300
      3 CM2          1.2030     0.1160    -4.1040 c3         1 YF4      -0.134400
      4 N3          -0.6320    -0.0420    -2.5520 nb         1 YF4      -0.799000
      5 C4          -1.1300    -0.0440    -1.3150 ca         1 YF4       0.711200
      6 N4          -2.4650    -0.1880    -1.2000 nv         1 YF4      -0.964500
      7 C5          -0.2940     0.1400    -0.1910 ca         1 YF4      -0.396900
      8 C6           1.0330     0.3430    -0.4850 ca         1 YF4       0.481200
      9 C7          -0.8330     0.1720     1.2140 c3         1 YF4       0.238100
     10 CM4          0.8920     0.4350     4.5470 c3         1 YF4      -0.091100
     11 C3          -0.2220     0.4540     3.5140 c3         1 YF4       0.169800
     12 N2           0.1890    -0.0570     2.2150 n3         1 YF4      -0.720600
     13 C1           0.5490    -1.4600     2.2710 c3         1 YF4       0.147100
     14 HM21         1.4570    -0.9110    -4.3790 hc         1 YF4       0.057033
     15 HM22         0.4620     0.4700    -4.8180 hc         1 YF4       0.057033
     16 HM23         2.1080     0.7130    -4.1950 hc         1 YF4       0.057033
     17 H4'1        -2.9810    -0.4700    -2.0160 hn         1 YF4       0.431800
     18 H4'2        -2.8900    -0.4000    -0.3140 hn         1 YF4       0.431800
     19 H6           1.7360     0.5040     0.3250 h4         1 YF4       0.037100
     20 H7'1        -1.6590    -0.5550     1.3190 h1         1 YF4       0.030200
     21 H7'2        -1.2800     1.1550     1.3930 h1         1 YF4       0.030200
     22 HM41         0.5680     0.9590     5.4470 hc         1 YF4       0.039033
     23 HM42         1.1740    -0.5740     4.8460 hc         1 YF4       0.039033
     24 HM43         1.7820     0.9390     4.1680 hc         1 YF4       0.039033
     25 H41         -1.0940    -0.0970     3.9050 h1         1 YF4       0.028200
     26 H42         -0.5480     1.4880     3.3750 h1         1 YF4       0.028200
     27 H21          0.8340    -1.8200     1.2830 h1         1 YF4       0.032700
     28 H22          1.4010    -1.6170     2.9300 h1         1 YF4       0.032700
     29 H23         -0.2780    -2.0920     2.6320 h1         1 YF4       0.032700
@<TRIPOS>BOND
     1     1     2 ar  
     2     1     8 ar  
     3     2     3 1   
     4     2     4 ar  
     5     3    14 1   
     6     3    15 1   
     7     3    16 1   
     8     4     5 ar  
     9     5     6 1   
    10     5     7 ar  
    11     6    17 1   
    12     6    18 1   
    13     7     8 ar  
    14     7     9 1   
    15     8    19 1   
    16     9    12 1   
    17     9    20 1   
    18     9    21 1   
    19    10    11 1   
    20    10    22 1   
    21    10    23 1   
    22    10    24 1   
    23    11    12 1   
    24    11    25 1   
    25    11    26 1   
    26    12    13 1   
    27    13    27 1   
    28    13    28 1   
    29    13    29 1   
@<TRIPOS>SUBSTRUCTURE
     1 YF4         1 TEMP              0 ****  ****    0 ROOT
