@<TRIPOS>MOLECULE
YF6
   81    86     1     0     0
SMALL
abcg2


@<TRIPOS>ATOM
      1 C1          12.5390    15.3600     5.6210 ca         1 YF6      -0.153000
      2 C2          13.7990    15.8640     5.8830 ca         1 YF6       0.292000
      3 C3          14.7030    16.0580     4.8250 ca         1 YF6      -0.122800
      4 C4          14.2900    15.7160     3.5120 ca         1 YF6       0.001800
      5 C5          13.0310    15.1840     3.2520 ca         1 YF6      -0.113000
      6 C6          12.1500    15.0000     4.3120 ca         1 YF6       0.002200
      7 C7          10.8070    14.4420     4.0520 cc         1 YF6      -0.062200
      8 C8          10.1920    14.6100     2.7830 cc         1 YF6      -0.245000
      9 C9           8.9700    14.0510     2.5000 cd         1 YF6       0.088800
     10 C10          8.2670    13.2870     3.5240 c          1 YF6       0.523200
     11 N1           8.9020    13.1790     4.7360 n          1 YF6      -0.252000
     12 C11         10.1380    13.7220     4.9980 cd         1 YF6      -0.089400
     13 N2           8.3170    14.1600     1.3120 nu         1 YF6      -0.841200
     14 C12          8.8170    14.9100     0.1770 c6         1 YF6       0.249500
     15 C13          7.6760    15.2600    -0.7750 c6         1 YF6      -0.093900
     16 C14          8.2040    16.0290    -1.9830 c6         1 YF6       0.159800
     17 N3           9.2430    15.2540    -2.6640 n7         1 YF6      -0.864400
     18 C15         10.3830    14.9890    -1.7820 c6         1 YF6       0.159800
     19 C16          9.9240    14.1670    -0.5840 c6         1 YF6      -0.093900
     20 C17          8.2140    12.4230     5.7830 c3         1 YF6       0.081300
     21 O1           7.1530    12.7660     3.3240 o          1 YF6      -0.595000
     22 C18         16.0350    16.5710     4.7250 cc         1 YF6      -0.256200
     23 C19         16.3770    16.5240     3.4010 cd         1 YF6      -0.124100
     24 N4          15.3370    16.0030     2.6550 na         1 YF6      -0.072700
     25 N5          14.1900    16.2310     7.2030 nu         1 YF6      -0.868100
     26 S1          14.0770    15.1630     8.4700 s6         1 YF6       1.200100
     27 C20         14.8700    13.6530     7.9340 c3         1 YF6      -0.345400
     28 C21         16.3400    13.8310     7.5900 c3         1 YF6      -0.067100
     29 O2          12.6820    14.8660     8.6950 o          1 YF6      -0.540500
     30 O3          14.8320    15.7720     9.5420 o          1 YF6      -0.540500
     31 C22         15.3330    15.7740     1.2020 c3         1 YF6       0.024400
     32 C23         16.7320    16.0530     0.6220 c3         1 YF6      -0.096100
     33 C24         15.0130    14.2780     0.9720 ca         1 YF6       0.325300
     34 C25         14.3480    16.7290     0.5060 ca         1 YF6       0.325300
     35 N6          15.8980    13.4400     1.5200 nb         1 YF6      -0.652000
     36 C26         15.7000    12.1280     1.4020 ca         1 YF6       0.343400
     37 C27         14.6110    11.5780     0.7360 ca         1 YF6      -0.155500
     38 C28         13.6920    12.4470     0.1690 ca         1 YF6      -0.074000
     39 C29         13.8950    13.8160     0.2860 ca         1 YF6      -0.154500
     40 C30         14.1760    16.6740    -0.8800 ca         1 YF6      -0.154500
     41 C31         13.3010    17.5590    -1.4880 ca         1 YF6      -0.074000
     42 C32         12.6270    18.4860    -0.7020 ca         1 YF6      -0.155500
     43 C33         12.8770    18.4860     0.6620 ca         1 YF6       0.343400
     44 N7          13.7170    17.6310     1.2540 nb         1 YF6      -0.652000
     45 H1          11.8390    15.2580     6.4350 ha         1 YF6       0.142000
     46 H2          12.7380    14.9170     2.2520 ha         1 YF6       0.119000
     47 H3          10.6970    15.1980     2.0320 ha         1 YF6       0.186000
     48 H4          10.5350    13.5140     5.9780 h4         1 YF6       0.212000
     49 H5           7.4090    13.7250     1.2650 hn         1 YF6       0.515000
     50 H6           9.2390    15.8510     0.5520 h1         1 YF6       0.044700
     51 H7           6.9270    15.8600    -0.2520 hc         1 YF6       0.056450
     52 H8           7.1930    14.3370    -1.1110 hc         1 YF6       0.056450
     53 H9           8.5840    17.0060    -1.6400 h1         1 YF6       0.030700
     54 H10          7.3930    16.2220    -2.6870 h1         1 YF6       0.030700
     55 H11          9.5600    15.7620    -3.4820 hn         1 YF6       0.410000
     56 H13         11.1460    14.4480    -2.3460 h1         1 YF6       0.030700
     57 H14         10.8450    15.9210    -1.4190 h1         1 YF6       0.030700
     58 H15          9.5290    13.2060    -0.9250 hc         1 YF6       0.056450
     59 H16         10.7700    13.9620     0.0730 hc         1 YF6       0.056450
     60 H17          8.8130    12.4590     6.6880 h1         1 YF6       0.055700
     61 H18          7.2350    12.8600     5.9720 h1         1 YF6       0.055700
     62 H19          8.0780    11.3890     5.4710 h1         1 YF6       0.055700
     63 H20         16.6690    16.9270     5.5200 ha         1 YF6       0.200000
     64 H21         17.3000    16.8190     2.9370 h4         1 YF6       0.214000
     65 H22         15.0640    16.7390     7.2590 hn         1 YF6       0.494000
     66 H23         14.7140    12.9630     8.7650 h1         1 YF6       0.101200
     67 H24         14.2810    13.3050     7.0840 h1         1 YF6       0.101200
     68 H25         16.7530    12.8650     7.2960 hc         1 YF6       0.048700
     69 H26         16.4740    14.5210     6.7580 hc         1 YF6       0.048700
     70 H27         16.9040    14.2000     8.4460 hc         1 YF6       0.048700
     71 H28         17.4750    15.4270     1.1100 hc         1 YF6       0.058367
     72 H29         16.7270    15.8160    -0.4400 hc         1 YF6       0.058367
     73 H30         16.9950    17.1040     0.7370 hc         1 YF6       0.058367
     74 H31         16.4440    11.4860     1.8640 h4         1 YF6       0.027100
     75 H32         14.4920    10.5050     0.6710 ha         1 YF6       0.128500
     76 H33         12.8190    12.0720    -0.3500 ha         1 YF6       0.123500
     77 H34         13.1770    14.5020    -0.1340 ha         1 YF6       0.127500
     78 H35         14.7090    15.9460    -1.4740 ha         1 YF6       0.127500
     79 H36         13.1450    17.5230    -2.5580 ha         1 YF6       0.123500
     80 H37         11.9320    19.1940    -1.1330 ha         1 YF6       0.128500
     81 H38         12.3840    19.2000     1.3130 h4         1 YF6       0.027100
@<TRIPOS>BOND
     1     1     2 ar  
     2     1     6 ar  
     3     1    45 1   
     4     2     3 ar  
     5     2    25 1   
     6     3     4 ar  
     7     3    22 1   
     8     4     5 ar  
     9     4    24 1   
    10     5     6 ar  
    11     5    46 1   
    12     6     7 1   
    13     7     8 1   
    14     7    12 2   
    15     8     9 2   
    16     8    47 1   
    17     9    10 1   
    18     9    13 1   
    19    10    11 1   
    20    10    21 2   
    21    11    12 1   
    22    11    20 1   
    23    12    48 1   
    24    13    14 1   
    25    13    49 1   
    26    14    15 1   
    27    14    19 1   
    28    14    50 1   
    29    15    16 1   
    30    15    51 1   
    31    15    52 1   
    32    16    17 1   
    33    16    53 1   
    34    16    54 1   
    35    17    18 1   
    36    17    55 1   
    37    18    19 1   
    38    18    56 1   
    39    18    57 1   
    40    19    58 1   
    41    19    59 1   
    42    20    60 1   
    43    20    61 1   
    44    20    62 1   
    45    22    23 2   
    46    22    63 1   
    47    23    24 1   
    48    23    64 1   
    49    24    31 1   
    50    25    26 1   
    51    25    65 1   
    52    26    27 1   
    53    26    29 2   
    54    26    30 2   
    55    27    28 1   
    56    27    66 1   
    57    27    67 1   
    58    28    68 1   
    59    28    69 1   
    60    28    70 1   
    61    31    32 1   
    62    31    33 1   
    63    31    34 1   
    64    32    71 1   
    65    32    72 1   
    66    32    73 1   
    67    33    35 ar  
    68    33    39 ar  
    69    34    40 ar  
    70    34    44 ar  
    71    35    36 ar  
    72    36    37 ar  
    73    36    74 1   
    74    37    38 ar  
    75    37    75 1   
    76    38    39 ar  
    77    38    76 1   
    78    39    77 1   
    79    40    41 ar  
    80    40    78 1   
    81    41    42 ar  
    82    41    79 1   
    83    42    43 ar  
    84    42    80 1   
    85    43    44 ar  
    86    43    81 1   
@<TRIPOS>SUBSTRUCTURE
     1 YF6         1 TEMP              0 ****  ****    0 ROOT
