@<TRIPOS>MOLECULE
YF6
   81    86     1     0     0
SMALL
No Charge or Current Charge


@<TRIPOS>ATOM
      1 C1          12.6070    15.3160     5.7350 ca         1 YF6      -0.153000
      2 C2          13.9130    15.7830     5.9950 ca         1 YF6       0.292000
      3 C3          14.7300    16.0880     4.8950 ca         1 YF6      -0.122800
      4 C4          14.3110    15.9160     3.6040 ca         1 YF6       0.001800
      5 C5          13.0100    15.4640     3.3380 ca         1 YF6      -0.113000
      6 C6          12.1320    15.1530     4.4040 ca         1 YF6       0.002200
      7 C7          10.7560    14.6930     4.1080 cc         1 YF6      -0.062200
      8 C8          10.1040    14.8920     2.8420 cc         1 YF6      -0.245000
      9 C9           8.8590    14.3540     2.5900 cd         1 YF6       0.088800
     10 C10          8.1390    13.5460     3.6480 c          1 YF6       0.523200
     11 N1           8.8440    13.3790     4.8660 n          1 YF6      -0.252000
     12 C11         10.1180    13.9200     5.0650 cd         1 YF6      -0.089400
     13 N2           8.2240    14.5360     1.3600 nu         1 YF6      -0.841200
     14 C12          8.8750    15.0260     0.1280 c6         1 YF6       0.249500
     15 C13          7.8050    15.3760    -0.9300 c6         1 YF6      -0.093900
     16 C14          8.4800    15.8310    -2.2460 c6         1 YF6       0.159800
     17 N3           9.4210    14.8010    -2.7460 n7         1 YF6      -0.864400
     18 C15         10.4710    14.4480    -1.7630 c6         1 YF6       0.159800
     19 C16          9.8460    13.9590    -0.4370 c6         1 YF6      -0.093900
     20 C17          8.2000    12.5830     5.9360 c3         1 YF6       0.081300
     21 O1           7.0230    13.0580     3.4690 o          1 YF6      -0.595000
     22 C18         16.0660    16.6100     4.8390 cc         1 YF6      -0.256200
     23 C19         16.4060    16.7300     3.4990 cd         1 YF6      -0.124100
     24 N4          15.3200    16.2780     2.7010 na         1 YF6      -0.072700
     25 N5          14.4030    15.9650     7.2830 nu         1 YF6      -0.868100
     26 S1          14.2220    14.9470     8.5790 s6         1 YF6       1.200100
     27 C20         14.6760    13.3140     7.9690 c3         1 YF6      -0.345400
     28 C21         16.1130    13.2230     7.3960 c3         1 YF6      -0.067100
     29 O2          12.8010    14.9610     8.9310 o          1 YF6      -0.540500
     30 O3          15.2290    15.3920     9.5430 o          1 YF6      -0.540500
     31 C22         15.2930    16.0120     1.2140 c3         1 YF6       0.024400
     32 C23         16.6580    16.4470     0.5830 c3         1 YF6      -0.096100
     33 C24         15.0980    14.4820     0.9850 ca         1 YF6       0.325300
     34 C25         14.2120    16.8420     0.4600 ca         1 YF6       0.325300
     35 N6          16.1500    13.6880     1.3250 nb         1 YF6      -0.652000
     36 C26         16.0410    12.3490     1.1720 ca         1 YF6       0.343400
     37 C27         14.8850    11.7300     0.6760 ca         1 YF6      -0.155500
     38 C28         13.7880    12.5260     0.3230 ca         1 YF6      -0.074000
     39 C29         13.8970    13.9160     0.4820 ca         1 YF6      -0.154500
     40 C30         14.0140    16.6730    -0.9320 ca         1 YF6      -0.154500
     41 C31         13.0470    17.4380    -1.6030 ca         1 YF6      -0.074000
     42 C32         12.3100    18.3710    -0.8610 ca         1 YF6      -0.155500
     43 C33         12.5750    18.5100     0.5100 ca         1 YF6       0.343400
     44 N7          13.5060    17.7730     1.1560 nb         1 YF6      -0.652000
     45 H1          11.9460    15.1390     6.5720 ha         1 YF6       0.142000
     46 H2          12.6890    15.3520     2.3140 ha         1 YF6       0.119000
     47 H3          10.5970    15.4960     2.0940 ha         1 YF6       0.186000
     48 H4          10.5460    13.6450     6.0220 h4         1 YF6       0.212000
     49 H5           7.3100    14.0800     1.2790 hn         1 YF6       0.515000
     50 H6           9.4410    15.9460     0.3370 h1         1 YF6       0.044700
     51 H7           7.1510    16.1750    -0.5560 hc         1 YF6       0.056450
     52 H8           7.1650    14.5060    -1.1300 hc         1 YF6       0.056450
     53 H9           9.0250    16.7710    -2.0730 h1         1 YF6       0.030700
     54 H10          7.7100    16.0260    -3.0070 h1         1 YF6       0.030700
     55 H11          9.8700    15.1500    -3.6040 hn         1 YF6       0.410000
     56 H13         11.1170    13.6610    -2.1800 h1         1 YF6       0.030700
     57 H14         11.1010    15.3280    -1.5670 h1         1 YF6       0.030700
     58 H15          9.3100    13.0160    -0.6110 hc         1 YF6       0.056450
     59 H16         10.6410    13.7390     0.2850 hc         1 YF6       0.056450
     60 H17          8.8170    12.5740     6.8430 h1         1 YF6       0.055700
     61 H18          7.2220    13.0160     6.1820 h1         1 YF6       0.055700
     62 H19          8.0600    11.5500     5.5930 h1         1 YF6       0.055700
     63 H20         16.7140    16.8770     5.6710 ha         1 YF6       0.200000
     64 H21         17.3390    17.0820     3.0710 h4         1 YF6       0.214000
     65 H22         15.3630    16.2660     7.3450 hn         1 YF6       0.494000
     66 H23         14.5580    12.6350     8.8200 h1         1 YF6       0.101200
     67 H24         13.9380    13.0590     7.2010 h1         1 YF6       0.101200
     68 H25         16.3270    12.1970     7.0720 hc         1 YF6       0.048700
     69 H26         16.2380    13.8810     6.5280 hc         1 YF6       0.048700
     70 H27         16.8570    13.5000     8.1530 hc         1 YF6       0.048700
     71 H28         17.5110    15.9590     1.0680 hc         1 YF6       0.058367
     72 H29         16.7060    16.1880    -0.4810 hc         1 YF6       0.058367
     73 H30         16.7960    17.5320     0.6690 hc         1 YF6       0.058367
     74 H31         16.9100    11.7550     1.4560 h4         1 YF6       0.027100
     75 H32         14.8470    10.6490     0.5720 ha         1 YF6       0.128500
     76 H33         12.8730    12.0770    -0.0600 ha         1 YF6       0.123500
     77 H34         13.0450    14.5330     0.2220 ha         1 YF6       0.127500
     78 H35         14.5970    15.9430    -1.4880 ha         1 YF6       0.127500
     79 H36         12.8750    17.3120    -2.6710 ha         1 YF6       0.123500
     80 H37         11.5510    18.9870    -1.3340 ha         1 YF6       0.128500
     81 H38         12.0270    19.2340     1.1110 h4         1 YF6       0.027100
@<TRIPOS>BOND
     1     1     2 ar  
     2     1     6 ar  
     3     1    45 1   
     4     2     3 ar  
     5     2    25 1   
     6     3     4 ar  
     7     3    22 1   
     8     4     5 ar  
     9     4    24 1   
    10     5     6 ar  
    11     5    46 1   
    12     6     7 1   
    13     7     8 1   
    14     7    12 2   
    15     8     9 2   
    16     8    47 1   
    17     9    10 1   
    18     9    13 1   
    19    10    11 1   
    20    10    21 2   
    21    11    12 1   
    22    11    20 1   
    23    12    48 1   
    24    13    14 1   
    25    13    49 1   
    26    14    15 1   
    27    14    19 1   
    28    14    50 1   
    29    15    16 1   
    30    15    51 1   
    31    15    52 1   
    32    16    17 1   
    33    16    53 1   
    34    16    54 1   
    35    17    18 1   
    36    17    55 1   
    37    18    19 1   
    38    18    56 1   
    39    18    57 1   
    40    19    58 1   
    41    19    59 1   
    42    20    60 1   
    43    20    61 1   
    44    20    62 1   
    45    22    23 2   
    46    22    63 1   
    47    23    24 1   
    48    23    64 1   
    49    24    31 1   
    50    25    26 1   
    51    25    65 1   
    52    26    27 1   
    53    26    29 2   
    54    26    30 2   
    55    27    28 1   
    56    27    66 1   
    57    27    67 1   
    58    28    68 1   
    59    28    69 1   
    60    28    70 1   
    61    31    32 1   
    62    31    33 1   
    63    31    34 1   
    64    32    71 1   
    65    32    72 1   
    66    32    73 1   
    67    33    35 ar  
    68    33    39 ar  
    69    34    40 ar  
    70    34    44 ar  
    71    35    36 ar  
    72    36    37 ar  
    73    36    74 1   
    74    37    38 ar  
    75    37    75 1   
    76    38    39 ar  
    77    38    76 1   
    78    39    77 1   
    79    40    41 ar  
    80    40    78 1   
    81    41    42 ar  
    82    41    79 1   
    83    42    43 ar  
    84    42    80 1   
    85    43    44 ar  
    86    43    81 1   
@<TRIPOS>SUBSTRUCTURE
     1 YF6         1 TEMP              0 ****  ****    0 ROOT
