@<TRIPOS>MOLECULE
YF7
   47    50     1     0     0
SMALL
bcc


@<TRIPOS>ATOM
      1 CAF         -4.5030     1.0120    -0.2820 ca         1 YF7      -0.119000
      2 CAA         -5.6950     1.7120    -0.3150 ca         1 YF7       0.038400
      3 CLA         -5.6650     3.3490    -0.8890 cl         1 YF7      -0.137400
      4 CAB         -6.9100     1.1500     0.0780 ca         1 YF7      -0.110300
      5 CAG         -8.1970     1.9110     0.0250 c3         1 YF7      -0.031800
      6 CAC         -6.8640    -0.1690     0.5200 ca         1 YF7      -0.123000
      7 CAD         -5.6820    -0.8880     0.5730 ca         1 YF7      -0.145000
      8 CAE         -4.4790    -0.3080     0.1720 ca         1 YF7       0.049200
      9 CAI         -3.2160    -1.0410     0.2170 cc         1 YF7      -0.111600
     10 SAJ         -3.2140    -2.7870     0.2410 ss         1 YF7      -0.230900
     11 CAM         -1.9520    -0.5360     0.2360 cd         1 YF7       0.005800
     12 C5          -0.9510    -1.5480     0.2720 ca         1 YF7      -0.402400
     13 C6          -1.4850    -2.8300     0.2810 ca         1 YF7       0.548600
     14 N1          -0.7840    -3.9640     0.3060 nb         1 YF7      -0.803000
     15 C2           0.5220    -3.7630     0.3150 ca         1 YF7       0.705900
     16 N3           1.1750    -2.6110     0.3020 nb         1 YF7      -0.782000
     17 C4           0.4720    -1.4720     0.2840 ca         1 YF7       0.771200
     18 NAR          1.1020    -0.3030     0.3150 nu         1 YF7      -0.729900
     19 CAS          2.4990    -0.0860    -0.0290 c3         1 YF7       0.084300
     20 PBB          2.5140     0.6430    -1.7680 p5         1 YF7       1.089700
     21 OBD          3.9700     0.6430    -2.2260 o          1 YF7      -0.902833
     22 OBE          1.6140    -0.3110    -2.5590 o          1 YF7      -0.902833
     23 OBC          1.9010     2.0370    -1.5530 o          1 YF7      -0.902833
     24 CAT          3.1140     0.8080     1.0540 c3         1 YF7      -0.011100
     25 CAU          4.5850     1.0590     0.8970 ca         1 YF7       0.003700
     26 CAZ          5.5070     0.1910     1.4750 ca         1 YF7      -0.172000
     27 CAY          6.8590     0.4480     1.3410 ca         1 YF7       0.095900
     28 FBA          7.7370    -0.4060     1.9040 f          1 YF7      -0.185900
     29 CAX          7.3400     1.5480     0.6620 ca         1 YF7      -0.198000
     30 CAW          6.4120     2.4110     0.0870 ca         1 YF7      -0.113000
     31 CAV          5.0540     2.1640     0.1910 ca         1 YF7      -0.067000
     32 H1          -3.5950     1.4900    -0.6240 ha         1 YF7       0.169000
     33 H2          -8.4200     2.2470    -0.9890 hc         1 YF7       0.034033
     34 H3          -9.0250     1.2920     0.3630 hc         1 YF7       0.034033
     35 H4          -8.1620     2.8000     0.6560 hc         1 YF7       0.034033
     36 H5          -7.7840    -0.6450     0.8360 ha         1 YF7       0.113000
     37 H6          -5.7080    -1.9050     0.9460 ha         1 YF7       0.135000
     38 H7          -1.7520     0.5260     0.2440 ha         1 YF7       0.157000
     39 H8           1.1410    -4.6550     0.3350 h5         1 YF7       0.017100
     40 H9           0.5290     0.5180     0.1780 hn         1 YF7       0.443800
     41 H10          2.9980    -1.0560    -0.0220 h1         1 YF7       0.075700
     42 H13          2.5870     1.7650     1.0460 hc         1 YF7       0.023700
     43 H14          2.9330     0.3560     2.0340 hc         1 YF7       0.023700
     44 H15          5.1750    -0.6770     2.0330 ha         1 YF7       0.130000
     45 H16          8.4040     1.7320     0.5860 ha         1 YF7       0.111000
     46 H17          6.7650     3.2810    -0.4520 ha         1 YF7       0.111000
     47 H18          4.3380     2.8220    -0.2820 ha         1 YF7       0.179000
@<TRIPOS>BOND
     1     1     2 ar  
     2     1     8 ar  
     3     1    32 1   
     4     2     3 1   
     5     2     4 ar  
     6     4     5 1   
     7     4     6 ar  
     8     5    33 1   
     9     5    34 1   
    10     5    35 1   
    11     6     7 ar  
    12     6    36 1   
    13     7     8 ar  
    14     7    37 1   
    15     8     9 1   
    16     9    10 1   
    17     9    11 2   
    18    10    13 1   
    19    11    12 1   
    20    11    38 1   
    21    12    13 ar  
    22    12    17 ar  
    23    13    14 ar  
    24    14    15 ar  
    25    15    16 ar  
    26    15    39 1   
    27    16    17 ar  
    28    17    18 1   
    29    18    19 1   
    30    18    40 1   
    31    19    20 1   
    32    19    24 1   
    33    19    41 1   
    34    20    21 1   
    35    20    22 1   
    36    20    23 1   
    37    24    25 1   
    38    24    42 1   
    39    24    43 1   
    40    25    26 ar  
    41    25    31 ar  
    42    26    27 ar  
    43    26    44 1   
    44    27    28 1   
    45    27    29 ar  
    46    29    30 ar  
    47    29    45 1   
    48    30    31 ar  
    49    30    46 1   
    50    31    47 1   
@<TRIPOS>SUBSTRUCTURE
     1 YF7         1 TEMP              0 ****  ****    0 ROOT
