@<TRIPOS>MOLECULE
YF7
   47    50     1     0     0
SMALL
No Charge or Current Charge


@<TRIPOS>ATOM
      1 CAF         -4.5030     0.9180    -0.3790 ca         1 YF7      -0.101000
      2 CAA         -5.6470     1.7270    -0.2780 ca         1 YF7       0.130000
      3 ClA         -5.5940     3.3550    -0.9570 cl         1 YF7      -0.229000
      4 CAB         -6.8130     1.2410     0.3510 ca         1 YF7      -0.110300
      5 CAG         -8.0640     2.1050     0.4710 c3         1 YF7      -0.031800
      6 CAC         -6.8130    -0.0670     0.8700 ca         1 YF7      -0.105000
      7 CAD         -5.6680    -0.8740     0.7660 ca         1 YF7      -0.127000
      8 CAE         -4.4990    -0.3900     0.1470 ca         1 YF7       0.049200
      9 CAI         -3.3170    -1.2500     0.0450 cc         1 YF7      -0.111600
     10 SAJ         -3.3360    -3.0330    -0.0620 ss         1 YF7      -0.230900
     11 CAM         -2.0330    -0.7380     0.1020 cd         1 YF7      -0.044200
     12 C5          -1.0020    -1.7560     0.0380 ca         1 YF7      -0.271800
     13 C6          -1.5510    -3.0190    -0.0490 ca         1 YF7       0.220300
     14 N1          -0.8000    -4.1320    -0.1090 nb         1 YF7      -0.277000
     15 C2           0.5360    -3.9280    -0.0770 ca         1 YF7       0.179900
     16 N3           1.1730    -2.7370     0.0080 nb         1 YF7      -0.256000
     17 C4           0.3950    -1.6350     0.0620 ca         1 YF7       0.442900
     18 NAR          1.0200    -0.3920     0.1610 nu         1 YF7      -0.785100
     19 CAS          2.4680    -0.0860    -0.1390 c3         1 YF7      -0.073500
     20 PBB          3.0560     0.0540    -1.9520 p5         1 YF7       1.247500
     21 OBD          4.4990    -0.3170    -2.0450 o          1 YF7      -0.902833
     22 OBE          2.2560    -0.8760    -2.8060 o          1 YF7      -0.902833
     23 OBC          2.8560     1.4530    -2.4350 o          1 YF7      -0.902833
     24 CAT          2.8810     1.1490     0.7070 c3         1 YF7      -0.011100
     25 CAU          4.3890     1.3480     0.8250 ca         1 YF7       0.003700
     26 CAZ          5.1570     0.4670     1.6130 ca         1 YF7      -0.154000
     27 CAY          6.5410     0.6620     1.7420 ca         1 YF7       0.131000
     28 FBA          7.2700    -0.1860     2.4990 f          1 YF7      -0.221000
     29 CAX          7.1720     1.7360     1.0960 ca         1 YF7      -0.180000
     30 CAW          6.4120     2.6210     0.3110 ca         1 YF7      -0.095000
     31 CAV          5.0250     2.4270     0.1780 ca         1 YF7      -0.049000
     32 H1          -3.6260     1.3110    -0.8850 ha         1 YF7       0.151000
     33 H2          -8.4400     2.3940    -0.5180 hc         1 YF7       0.034033
     34 H3          -8.8750     1.5790     0.9890 hc         1 YF7       0.034033
     35 H4          -7.8570     3.0220     1.0350 hc         1 YF7       0.034033
     36 H5          -7.7020    -0.4640     1.3570 ha         1 YF7       0.095000
     37 H6          -5.6880    -1.8810     1.1770 ha         1 YF7       0.117000
     38 H7          -1.8270     0.3220     0.2200 ha         1 YF7       0.207000
     39 H8           1.1660    -4.8150    -0.1230 h5         1 YF7       0.017100
     40 H9           0.3730     0.3930     0.1170 hn         1 YF7       0.499000
     41 H10          3.0760    -0.9240     0.2240 h1         1 YF7       0.075700
     42 H13          2.4030     2.0460     0.2950 hc         1 YF7       0.023700
     43 H14          2.4740     1.0360     1.7200 hc         1 YF7       0.023700
     44 H15          4.6820    -0.3650     2.1250 ha         1 YF7       0.112000
     45 H16          8.2440     1.8820     1.2020 ha         1 YF7       0.093000
     46 H17          6.8950     3.4550    -0.1920 ha         1 YF7       0.093000
     47 H18          4.4430     3.1160    -0.4320 ha         1 YF7       0.161000
@<TRIPOS>BOND
     1     1     2 ar  
     2     1     8 ar  
     3     1    32 1   
     4     2     3 1   
     5     2     4 ar  
     6     4     5 1   
     7     4     6 ar  
     8     5    33 1   
     9     5    34 1   
    10     5    35 1   
    11     6     7 ar  
    12     6    36 1   
    13     7     8 ar  
    14     7    37 1   
    15     8     9 1   
    16     9    10 1   
    17     9    11 2   
    18    10    13 1   
    19    11    12 1   
    20    11    38 1   
    21    12    13 ar  
    22    12    17 ar  
    23    13    14 ar  
    24    14    15 ar  
    25    15    16 ar  
    26    15    39 1   
    27    16    17 ar  
    28    17    18 1   
    29    18    19 1   
    30    18    40 1   
    31    19    20 1   
    32    19    24 1   
    33    19    41 1   
    34    20    21 1   
    35    20    22 1   
    36    20    23 1   
    37    24    25 1   
    38    24    42 1   
    39    24    43 1   
    40    25    26 ar  
    41    25    31 ar  
    42    26    27 ar  
    43    26    44 1   
    44    27    28 1   
    45    27    29 ar  
    46    29    30 ar  
    47    29    45 1   
    48    30    31 ar  
    49    30    46 1   
    50    31    47 1   
@<TRIPOS>SUBSTRUCTURE
     1 YF7         1 TEMP              0 ****  ****    0 ROOT
