@<TRIPOS>MOLECULE
YFA
   68    73     1     0     0
SMALL
abcg2


@<TRIPOS>ATOM
      1 C02         36.2200     7.1460    17.5090 c          1 YFA       0.604100
      2 C04         35.2100     9.1870    16.7090 cc         1 YFA       0.532300
      3 C06         34.4650    11.0760    15.9020 cd         1 YFA       0.302900
      4 C07         35.7800    11.2690    15.6450 cc         1 YFA      -0.311000
      5 C09         35.8710     5.7780    18.0900 c3         1 YFA       0.085000
      6 C11         37.4850     5.9390    19.8780 c          1 YFA       0.585600
      7 C12         38.6980     5.4020    20.4860 ca         1 YFA      -0.244600
      8 C13         39.3000     5.9830    21.6080 ca         1 YFA       0.258000
      9 C15         40.4860     5.5190    22.1440 cp         1 YFA      -0.104000
     10 C16         41.1490     6.1740    23.2900 cp         1 YFA      -0.038000
     11 C17         41.4290     7.5420    23.2810 ca         1 YFA      -0.089500
     12 C18         42.1190     8.1280    24.3280 ca         1 YFA      -0.109000
     13 C19         42.5460     7.3780    25.4250 ca         1 YFA      -0.065300
     14 C20         43.3120     8.0160    26.5550 c6         1 YFA      -0.017400
     15 C21         42.5590     9.1830    27.1950 c6         1 YFA      -0.102900
     16 C22         43.3050     9.7010    28.4340 c6         1 YFA       0.172300
     17 C25         45.1980     9.6760    26.9530 c6         1 YFA       0.172300
     18 C26         44.7080     8.4930    26.1020 c6         1 YFA      -0.102900
     19 C27         42.2570     6.0180    25.4310 ca         1 YFA      -0.109000
     20 C28         41.5740     5.4200    24.3800 ca         1 YFA      -0.089500
     21 C29         41.0590     4.3860    21.5470 ca         1 YFA      -0.041000
     22 C30         40.4890     3.7690    20.4600 ca         1 YFA      -0.125000
     23 C31         39.3110     4.2770    19.9060 ca         1 YFA       0.213400
     24 C33         37.7270     4.1500    18.2840 cc         1 YFA       0.525800
     25 C35         35.3060     4.8770    17.0150 ca         1 YFA      -0.133300
     26 C36         34.2880     3.9910    17.3520 ca         1 YFA      -0.089500
     27 C37         33.7530     3.1400    16.3960 ca         1 YFA      -0.108500
     28 C38         34.2300     3.1720    15.0930 ca         1 YFA      -0.088000
     29 C39         35.2430     4.0580    14.7490 ca         1 YFA      -0.108500
     30 C40         35.7800     4.9060    15.7050 ca         1 YFA      -0.089500
     31 F14         38.7060     7.0190    22.2000 f          1 YFA      -0.146000
     32 N03         35.1490     7.9490    17.3070 ns         1 YFA      -0.456400
     33 N05         34.1460     9.8930    16.5070 nd         1 YFA      -0.704000
     34 N10         37.0560     5.2360    18.7540 n          1 YFA      -0.327300
     35 N23         44.7620     9.6260    28.3320 n3         1 YFA      -0.730600
     36 N32         38.7890     3.6590    18.8000 nd         1 YFA      -0.628100
     37 O01         37.3470     7.4680    17.2010 o          1 YFA      -0.560100
     38 O34         36.8610     6.9110    20.2530 o          1 YFA      -0.517000
     39 S08         36.6910     9.9080    16.1780 ss         1 YFA       0.056600
     40 H1          33.6790    11.7780    15.6650 h4         1 YFA       0.040100
     41 H2          36.2560    12.1160    15.1790 h4         1 YFA       0.160000
     42 H3          35.1020     5.9120    18.8550 h1         1 YFA       0.095700
     43 H4          41.1360     8.1510    22.4360 ha         1 YFA       0.117500
     44 H5          42.3370     9.1880    24.2780 ha         1 YFA       0.113500
     45 H6          43.4450     7.2510    27.3260 hc         1 YFA       0.050700
     46 H7          42.4430     9.9850    26.4610 hc         1 YFA       0.047200
     47 H8          41.5500     8.8790    27.4800 hc         1 YFA       0.047200
     48 H9          43.0010    10.7380    28.6190 h1         1 YFA       0.047950
     49 H10         42.9910     9.1300    29.3100 h1         1 YFA       0.047950
     50 H11         45.1000     8.6390    30.1400 h1         1 YFA       0.028033
     51 H12         45.0880     7.5350    28.7640 h1         1 YFA       0.028033
     52 H13         46.4540     8.6240    29.0180 h1         1 YFA       0.028033
     53 H14         46.2890     9.7340    26.9230 h1         1 YFA       0.047950
     54 H15         44.8350    10.6110    26.5170 h1         1 YFA       0.047950
     55 H16         45.4070     7.6550    26.1520 hc         1 YFA       0.047200
     56 H17         44.6800     8.8070    25.0550 hc         1 YFA       0.047200
     57 H18         42.5730     5.4090    26.2710 ha         1 YFA       0.113500
     58 H19         41.3670     4.3580    24.4160 ha         1 YFA       0.117500
     59 H20         41.9870     4.0020    21.9510 ha         1 YFA       0.125000
     60 H21         40.9510     2.9020    20.0070 ha         1 YFA       0.140000
     61 H22         37.3090     3.6710    17.4090 h5         1 YFA       0.060800
     62 H23         33.9120     3.9660    18.3680 ha         1 YFA       0.126000
     63 H24         32.9610     2.4550    16.6690 ha         1 YFA       0.123000
     64 H25         33.8130     2.5100    14.3460 ha         1 YFA       0.121000
     65 H26         35.6190     4.0880    13.7350 ha         1 YFA       0.123000
     66 H27         36.5790     5.5800    15.4200 ha         1 YFA       0.126000
     67 H28         34.2240     7.6440    17.5790 hn         1 YFA       0.346500
     68 C24         45.3670     8.5490    29.0860 c3         1 YFA       0.163100
@<TRIPOS>BOND
     1     1     5 1   
     2     1    32 1   
     3     1    37 2   
     4     2    32 1   
     5     2    33 2   
     6     2    39 1   
     7     3     4 2   
     8     3    33 1   
     9     3    40 1   
    10     4    39 1   
    11     4    41 1   
    12     5    25 1   
    13     5    34 1   
    14     5    42 1   
    15     6     7 1   
    16     6    34 1   
    17     6    38 2   
    18     7     8 ar  
    19     7    23 ar  
    20     8     9 ar  
    21     8    31 1   
    22     9    10 1   
    23     9    21 ar  
    24    10    11 ar  
    25    10    20 ar  
    26    11    12 ar  
    27    11    43 1   
    28    12    13 ar  
    29    12    44 1   
    30    13    14 1   
    31    13    19 ar  
    32    14    15 1   
    33    14    18 1   
    34    14    45 1   
    35    15    16 1   
    36    15    46 1   
    37    15    47 1   
    38    16    35 1   
    39    16    48 1   
    40    16    49 1   
    41    17    18 1   
    42    17    35 1   
    43    17    53 1   
    44    17    54 1   
    45    18    55 1   
    46    18    56 1   
    47    19    20 ar  
    48    19    57 1   
    49    20    58 1   
    50    21    22 ar  
    51    21    59 1   
    52    22    23 ar  
    53    22    60 1   
    54    23    36 1   
    55    24    34 1   
    56    24    36 2   
    57    24    61 1   
    58    25    26 ar  
    59    25    30 ar  
    60    26    27 ar  
    61    26    62 1   
    62    27    28 ar  
    63    27    63 1   
    64    28    29 ar  
    65    28    64 1   
    66    29    30 ar  
    67    29    65 1   
    68    30    66 1   
    69    32    67 1   
    70    35    68 1   
    71    50    68 1   
    72    51    68 1   
    73    52    68 1   
@<TRIPOS>SUBSTRUCTURE
     1 YFA         1 TEMP              0 ****  ****    0 ROOT
