@<TRIPOS>MOLECULE
YFA
   68    73     1     0     0
SMALL
No Charge or Current Charge


@<TRIPOS>ATOM
      1 C02         36.2850     7.5300    16.3450 c          1 YFA       0.604100
      2 C04         34.7520     8.6090    14.7270 cc         1 YFA       0.532300
      3 C06         33.3350     9.5560    13.3060 cd         1 YFA       0.302900
      4 C07         34.5090     9.7900    12.6300 cc         1 YFA      -0.311000
      5 C09         36.2450     6.7820    17.7100 c3         1 YFA       0.085000
      6 C11         37.9480     6.7640    19.5430 c          1 YFA       0.585600
      7 C12         39.2900     6.3050    19.9960 ca         1 YFA      -0.244600
      8 C13         39.8150     6.6350    21.2710 ca         1 YFA       0.258000
      9 C15         41.0990     6.1840    21.6800 cp         1 YFA      -0.104000
     10 C16         41.6770     6.5230    23.0180 cp         1 YFA      -0.038000
     11 C17         41.6530     7.8450    23.5220 ca         1 YFA      -0.089500
     12 C18         42.2090     8.1550    24.7750 ca         1 YFA      -0.109000
     13 C19         42.8090     7.1500    25.5600 ca         1 YFA      -0.065300
     14 C20         43.4200     7.4760    26.9320 c6         1 YFA      -0.017400
     15 C21         42.3850     8.0870    27.9120 c6         1 YFA      -0.102900
     16 C22         42.9840     8.3620    29.3250 c6         1 YFA       0.172300
     17 C25         44.8990     9.2980    28.0680 c6         1 YFA       0.172300
     18 C26         44.6680     8.4050    26.8130 c6         1 YFA      -0.102900
     19 C27         42.8480     5.8320    25.0650 ca         1 YFA      -0.109000
     20 C28         42.2920     5.5240    23.8110 ca         1 YFA      -0.089500
     21 C29         41.8350     5.3840    20.7810 ca         1 YFA      -0.041000
     22 C30         41.3140     5.0590    19.5220 ca         1 YFA      -0.125000
     23 C31         40.0490     5.5130    19.1200 ca         1 YFA       0.213400
     24 C33         38.4240     5.5770    17.4930 cc         1 YFA       0.525800
     25 C35         35.2820     5.5890    17.6950 ca         1 YFA      -0.133300
     26 C36         34.4680     5.3440    18.8190 ca         1 YFA      -0.089500
     27 C37         33.5830     4.2530    18.8340 ca         1 YFA      -0.108500
     28 C38         33.5070     3.3930    17.7270 ca         1 YFA      -0.088000
     29 C39         34.3190     3.6250    16.6050 ca         1 YFA      -0.108500
     30 C40         35.2050     4.7160    16.5870 ca         1 YFA      -0.089500
     31 F14         39.0830     7.3690    22.1410 f          1 YFA      -0.146000
     32 N03         35.0570     7.9380    15.8820 ns         1 YFA      -0.456400
     33 N05         33.4790     8.8780    14.5090 nd         1 YFA      -0.704000
     34 N10         37.5850     6.3820    18.2510 n          1 YFA      -0.327300
     35 N23         44.4560     8.6380    29.3260 n3         1 YFA      -0.730600
     36 N32         39.6270     5.1260    17.8460 nd         1 YFA      -0.628100
     37 O01         37.3230     7.7340    15.7320 o          1 YFA      -0.560100
     38 O34         37.2050     7.4360    20.2470 o          1 YFA      -0.517000
     39 S08         35.8760     9.1540    13.4970 ss         1 YFA       0.056600
     40 H1          32.3480     9.8540    12.9730 h4         1 YFA       0.040100
     41 H2          34.6540    10.2940    11.6840 h4         1 YFA       0.160000
     42 H3          35.8010     7.5320    18.3760 h1         1 YFA       0.095700
     43 H4          41.2100     8.6430    22.9310 ha         1 YFA       0.117500
     44 H5          42.1770     9.1820    25.1310 ha         1 YFA       0.113500
     45 H6          43.7510     6.5300    27.3800 hc         1 YFA       0.050700
     46 H7          42.0070     9.0330    27.5020 hc         1 YFA       0.047200
     47 H8          41.5120     7.4260    28.0050 hc         1 YFA       0.047200
     48 H9          42.4460     9.2170    29.7600 h1         1 YFA       0.047950
     49 H10         42.7630     7.5030    29.9770 h1         1 YFA       0.047950
     50 H11         44.9940     7.1160    30.7200 h1         1 YFA       0.028033
     51 H12         45.2220     6.6530    29.0200 h1         1 YFA       0.028033
     52 H13         46.3530     7.7830    29.7940 h1         1 YFA       0.028033
     53 H14         45.9610     9.5830    28.1240 h1         1 YFA       0.047950
     54 H15         44.3350    10.2330    27.9350 h1         1 YFA       0.047950
     55 H16         45.5570     7.7840    26.6350 hc         1 YFA       0.047200
     56 H17         44.5830     9.0600    25.9370 hc         1 YFA       0.047200
     57 H18         43.3080     5.0390    25.6510 ha         1 YFA       0.113500
     58 H19         42.3280     4.4980    23.4540 ha         1 YFA       0.117500
     59 H20         42.8230     5.0230    21.0570 ha         1 YFA       0.125000
     60 H21         41.9030     4.4440    18.8460 ha         1 YFA       0.140000
     61 H22         38.0280     5.3080    16.5220 h5         1 YFA       0.060800
     62 H23         34.5210     5.9990    19.6880 ha         1 YFA       0.126000
     63 H24         32.9580     4.0720    19.7060 ha         1 YFA       0.123000
     64 H25         32.8220     2.5470    17.7390 ha         1 YFA       0.121000
     65 H26         34.2620     2.9570    15.7470 ha         1 YFA       0.123000
     66 H27         35.8260     4.8740    15.7070 ha         1 YFA       0.126000
     67 H28         34.2710     7.6960    16.4660 hn         1 YFA       0.346500
     68 C24         45.2980     7.4850    29.7310 c3         1 YFA       0.163100
@<TRIPOS>BOND
     1     1     5 1   
     2     1    32 1   
     3     1    37 2   
     4     2    32 1   
     5     2    33 2   
     6     2    39 1   
     7     3     4 2   
     8     3    33 1   
     9     3    40 1   
    10     4    39 1   
    11     4    41 1   
    12     5    25 1   
    13     5    34 1   
    14     5    42 1   
    15     6     7 1   
    16     6    34 1   
    17     6    38 2   
    18     7     8 ar  
    19     7    23 ar  
    20     8     9 ar  
    21     8    31 1   
    22     9    10 1   
    23     9    21 ar  
    24    10    11 ar  
    25    10    20 ar  
    26    11    12 ar  
    27    11    43 1   
    28    12    13 ar  
    29    12    44 1   
    30    13    14 1   
    31    13    19 ar  
    32    14    15 1   
    33    14    18 1   
    34    14    45 1   
    35    15    16 1   
    36    15    46 1   
    37    15    47 1   
    38    16    35 1   
    39    16    48 1   
    40    16    49 1   
    41    17    18 1   
    42    17    35 1   
    43    17    53 1   
    44    17    54 1   
    45    18    55 1   
    46    18    56 1   
    47    19    20 ar  
    48    19    57 1   
    49    20    58 1   
    50    21    22 ar  
    51    21    59 1   
    52    22    23 ar  
    53    22    60 1   
    54    23    36 1   
    55    24    34 1   
    56    24    36 2   
    57    24    61 1   
    58    25    26 ar  
    59    25    30 ar  
    60    26    27 ar  
    61    26    62 1   
    62    27    28 ar  
    63    27    63 1   
    64    28    29 ar  
    65    28    64 1   
    66    29    30 ar  
    67    29    65 1   
    68    30    66 1   
    69    32    67 1   
    70    35    68 1   
    71    50    68 1   
    72    51    68 1   
    73    52    68 1   
@<TRIPOS>SUBSTRUCTURE
     1 YFA         1 TEMP              0 ****  ****    0 ROOT
