@<TRIPOS>MOLECULE
YFB
   61    62     1     0     0
SMALL
bcc


@<TRIPOS>ATOM
      1 CAB         -4.1230     4.2360     0.4940 c3         1 YFB      -0.054400
      2 CAV         -5.5030     3.8180     0.0810 c2         1 YFB      -0.118400
      3 CAC         -6.5510     4.8790     0.2590 c3         1 YFB      -0.054400
      4 CAH         -5.8190     2.6180    -0.4110 c2         1 YFB      -0.166200
      5 CAP         -4.9100     1.4520    -0.6490 c3         1 YFB      -0.044200
      6 CAR         -5.0980     0.3480     0.4040 c3         1 YFB      -0.029200
      7 CAW         -4.3170    -0.8880     0.0610 c2         1 YFB      -0.145400
      8 CAD         -4.8290    -1.7020    -1.1030 c3         1 YFB      -0.054900
      9 CAI         -3.2130    -1.2160     0.7430 c2         1 YFB      -0.161200
     10 CAQ         -2.3220    -2.3970     0.4670 c3         1 YFB       0.015100
     11 CBC         -0.8640    -2.0100     0.3650 ca         1 YFB      -0.218300
     12 CBB          0.1140    -2.5770     1.1930 ca         1 YFB       0.136100
     13 CAO          1.4500    -2.2240     1.0500 ca         1 YFB      -0.255000
     14 OAU         -0.3220    -3.4740     2.1070 os         1 YFB      -0.338900
     15 CAA          0.6160    -4.0710     2.9760 c3         1 YFB       0.136700
     16 CAZ         -0.4460    -1.0810    -0.5900 ca         1 YFB       0.181100
     17 OAG         -1.3360    -0.4920    -1.4280 oh         1 YFB      -0.479100
     18 CBD          0.8900    -0.7090    -0.7420 ca         1 YFB      -0.157600
     19 CAX          1.2730     0.2990    -1.8170 c          1 YFB       0.940200
     20 OAF          1.2880    -0.1260    -2.9860 o          1 YFB      -0.821300
     21 OAE          1.5480     1.4520    -1.4310 o          1 YFB      -0.821300
     22 CBA          1.8390    -1.2940     0.0860 ca         1 YFB      -0.015300
     23 CAT          3.2850    -0.8860     0.0140 c3         1 YFB      -0.017100
     24 CAS          3.5860     0.2780     0.9710 c3         1 YFB      -0.038100
     25 CAY          4.9580     0.8470     0.7490 ca         1 YFB      -0.059300
     26 CAM          5.1850     1.7080    -0.3250 ca         1 YFB      -0.125000
     27 CAK          6.4490     2.2230    -0.5690 ca         1 YFB      -0.140500
     28 CAJ          7.5130     1.8830     0.2590 ca         1 YFB      -0.150000
     29 CAL          7.3010     1.0230     1.3270 ca         1 YFB      -0.140500
     30 CAN          6.0320     0.5090     1.5680 ca         1 YFB      -0.125000
     31 HAB1        -3.7870     5.0940    -0.0940 hc         1 YFB       0.037367
     32 HAB2        -4.1220     4.5590     1.5380 hc         1 YFB       0.037367
     33 HAB3        -3.3800     3.4490     0.3920 hc         1 YFB       0.037367
     34 HAC1        -6.2960     5.7770    -0.3100 hc         1 YFB       0.037367
     35 HAC2        -7.5360     4.5420    -0.0640 hc         1 YFB       0.037367
     36 HAC3        -6.6240     5.1870     1.3050 hc         1 YFB       0.037367
     37 HAH         -6.8640     2.4360    -0.6550 ha         1 YFB       0.104000
     38 HAP1        -5.1220     1.0420    -1.6420 hc         1 YFB       0.056700
     39 HAP2        -3.8600     1.7510    -0.6610 hc         1 YFB       0.056700
     40 HAR1        -4.7980     0.7330     1.3810 hc         1 YFB       0.038700
     41 HAR2        -6.1620     0.0980     0.4750 hc         1 YFB       0.038700
     42 HAD1        -5.7160    -1.2500    -1.5430 hc         1 YFB       0.037367
     43 HAD2        -4.0890    -1.8020    -1.9010 hc         1 YFB       0.037367
     44 HAD3        -5.0980    -2.7130    -0.7940 hc         1 YFB       0.037367
     45 HAI         -2.9130    -0.5860     1.5770 ha         1 YFB       0.126000
     46 HAQ1        -2.4520    -3.1310     1.2630 hc         1 YFB       0.052200
     47 HAQ2        -2.6360    -2.9010    -0.4520 hc         1 YFB       0.052200
     48 HAO          2.2130    -2.6650     1.6790 ha         1 YFB       0.114000
     49 HAA1         1.3600    -4.6620     2.4360 h1         1 YFB       0.027367
     50 HAA2         1.1370    -3.3320     3.5910 h1         1 YFB       0.027367
     51 HAA3         0.0520    -4.7320     3.6300 h1         1 YFB       0.027367
     52 HAG         -2.2170    -0.4950    -1.0250 ho         1 YFB       0.407000
     53 HAT1         3.9270    -1.7340     0.2680 hc         1 YFB       0.048700
     54 HAT2         3.5500    -0.5910    -1.0030 hc         1 YFB       0.048700
     55 HAS1         2.8370     1.0540     0.8080 hc         1 YFB       0.060200
     56 HAS2         3.4790    -0.0660     2.0020 hc         1 YFB       0.060200
     57 HAM          4.3540     1.9720    -0.9710 ha         1 YFB       0.146000
     58 HAN          5.8730    -0.1620     2.4040 ha         1 YFB       0.146000
     59 HAK          6.6060     2.8940    -1.4050 ha         1 YFB       0.117000
     60 HAJ          8.5000     2.2870     0.0720 ha         1 YFB       0.112000
     61 HAL          8.1230     0.7520     1.9780 ha         1 YFB       0.117000
@<TRIPOS>BOND
     1     1     2 1   
     2     1    31 1   
     3     1    32 1   
     4     1    33 1   
     5     2     3 1   
     6     2     4 2   
     7     3    34 1   
     8     3    35 1   
     9     3    36 1   
    10     4     5 1   
    11     4    37 1   
    12     5     6 1   
    13     5    38 1   
    14     5    39 1   
    15     6     7 1   
    16     6    40 1   
    17     6    41 1   
    18     7     8 1   
    19     7     9 2   
    20     8    42 1   
    21     8    43 1   
    22     8    44 1   
    23     9    10 1   
    24     9    45 1   
    25    10    11 1   
    26    10    46 1   
    27    10    47 1   
    28    11    12 ar  
    29    11    16 ar  
    30    12    13 ar  
    31    12    14 1   
    32    13    22 ar  
    33    13    48 1   
    34    14    15 1   
    35    15    49 1   
    36    15    50 1   
    37    15    51 1   
    38    16    17 1   
    39    16    18 ar  
    40    17    52 1   
    41    18    19 1   
    42    18    22 ar  
    43    19    20 1   
    44    19    21 1   
    45    22    23 1   
    46    23    24 1   
    47    23    53 1   
    48    23    54 1   
    49    24    25 1   
    50    24    55 1   
    51    24    56 1   
    52    25    26 ar  
    53    25    30 ar  
    54    26    27 ar  
    55    26    57 1   
    56    27    28 ar  
    57    27    59 1   
    58    28    29 ar  
    59    28    60 1   
    60    29    30 ar  
    61    29    61 1   
    62    30    58 1   
@<TRIPOS>SUBSTRUCTURE
     1 YFB         1 TEMP              0 ****  ****    0 ROOT
