@<TRIPOS>MOLECULE
YFB
   61    62     1     0     0
SMALL
No Charge or Current Charge


@<TRIPOS>ATOM
      1 CAB         -4.1180     3.6610     1.2760 c3         1 YFB      -0.054400
      2 CAV         -5.3350     3.6810     0.3620 c2         1 YFB      -0.118400
      3 CAC         -6.2000     4.9090     0.5830 c3         1 YFB      -0.054400
      4 CAH         -5.6440     2.7360    -0.5460 c2         1 YFB      -0.216200
      5 CAP         -4.8530     1.4830    -0.8800 c3         1 YFB      -0.044200
      6 CAR         -5.2390     0.2910     0.0230 c3         1 YFB      -0.029200
      7 CAW         -4.3830    -0.9440    -0.2240 c2         1 YFB      -0.145400
      8 CAD         -4.8150    -1.7150    -1.4680 c3         1 YFB      -0.054900
      9 CAI         -3.3760    -1.2760     0.6090 c2         1 YFB      -0.211200
     10 CAQ         -2.4170    -2.4530     0.5310 c3         1 YFB       0.015100
     11 CBC         -0.9560    -1.9960     0.3870 ca         1 YFB      -0.218300
     12 CBB          0.0240    -2.3680     1.3360 ca         1 YFB       0.136100
     13 CAO          1.3610    -1.9540     1.1610 ca         1 YFB      -0.237000
     14 OAU         -0.3520    -3.1360     2.4220 os         1 YFB      -0.362100
     15 CAA          0.5760    -3.5560     3.4380 c3         1 YFB       0.159900
     16 CAZ         -0.5700    -1.2100    -0.7210 ca         1 YFB       0.181100
     17 OAG         -1.5180    -0.8340    -1.6260 oh         1 YFB      -0.518100
     18 CBD          0.7650    -0.8030    -0.8970 ca         1 YFB      -0.157600
     19 CAX          1.1260     0.0330    -2.0900 c          1 YFB       0.729600
     20 OAF          1.4930    -0.5430    -3.1060 o          1 YFB      -0.716000
     21 OAE          1.0900     1.2500    -1.9750 o          1 YFB      -0.716000
     22 CBA          1.7430    -1.1800     0.0520 ca         1 YFB      -0.015300
     23 CAT          3.2060    -0.7580    -0.0800 c3         1 YFB      -0.017100
     24 CAS          3.5070     0.5520     0.6760 c3         1 YFB      -0.038100
     25 CAY          4.9650     0.9700     0.5440 ca         1 YFB      -0.059300
     26 CAM          5.3790     1.7670    -0.5410 ca         1 YFB      -0.107000
     27 CAK          6.7260     2.1500    -0.6670 ca         1 YFB      -0.122500
     28 CAJ          7.6670     1.7360     0.2910 ca         1 YFB      -0.132000
     29 CAL          7.2600     0.9390     1.3750 ca         1 YFB      -0.122500
     30 CAN          5.9130     0.5570     1.5000 ca         1 YFB      -0.107000
     31 HAB1        -3.4590     4.5130     1.0700 hc         1 YFB       0.037367
     32 HAB2        -4.4200     3.7230     2.3290 hc         1 YFB       0.037367
     33 HAB3        -3.5190     2.7510     1.1710 hc         1 YFB       0.037367
     34 HAC1        -5.6350     5.8290     0.3920 hc         1 YFB       0.037367
     35 HAC2        -7.0730     4.9170    -0.0810 hc         1 YFB       0.037367
     36 HAC3        -6.5720     4.9500     1.6140 hc         1 YFB       0.037367
     37 HAH         -6.5470     2.8450    -1.1490 ha         1 YFB       0.154000
     38 HAP1        -5.0190     1.2160    -1.9300 hc         1 YFB       0.056700
     39 HAP2        -3.7760     1.6660    -0.7880 hc         1 YFB       0.056700
     40 HAR1        -5.1350     0.6110     1.0670 hc         1 YFB       0.038700
     41 HAR2        -6.3030     0.0580    -0.1110 hc         1 YFB       0.038700
     42 HAD1        -5.8700    -2.0050    -1.4000 hc         1 YFB       0.037367
     43 HAD2        -4.7000    -1.1070    -2.3730 hc         1 YFB       0.037367
     44 HAD3        -4.2470    -2.6360    -1.6320 hc         1 YFB       0.037367
     45 HAI         -3.1730    -0.6410     1.4750 ha         1 YFB       0.176000
     46 HAQ1        -2.5630    -3.0670     1.4260 hc         1 YFB       0.052200
     47 HAQ2        -2.6550    -3.1270    -0.2970 hc         1 YFB       0.052200
     48 HAO          2.1260    -2.2280     1.8810 ha         1 YFB       0.096000
     49 HAA1         1.3730    -4.1740     3.0050 h1         1 YFB       0.027367
     50 HAA2         1.0300    -2.6890     3.9340 h1         1 YFB       0.027367
     51 HAA3         0.0600    -4.1530     4.2000 h1         1 YFB       0.027367
     52 HAG         -2.3870    -1.0280    -1.2120 ho         1 YFB       0.446000
     53 HAT1         3.8570    -1.5480     0.3150 hc         1 YFB       0.048700
     54 HAT2         3.4940    -0.6430    -1.1320 hc         1 YFB       0.048700
     55 HAS1         2.8530     1.3450     0.2950 hc         1 YFB       0.060200
     56 HAS2         3.2440     0.4240     1.7330 hc         1 YFB       0.060200
     57 HAM          4.6570     2.0890    -1.2880 ha         1 YFB       0.128000
     58 HAN          5.6070    -0.0630     2.3410 ha         1 YFB       0.128000
     59 HAK          7.0410     2.7650    -1.5070 ha         1 YFB       0.099000
     60 HAJ          8.7090     2.0320     0.1940 ha         1 YFB       0.094000
     61 HAL          7.9880     0.6180     2.1160 ha         1 YFB       0.099000
@<TRIPOS>BOND
     1     1     2 1   
     2     1    31 1   
     3     1    32 1   
     4     1    33 1   
     5     2     3 1   
     6     2     4 2   
     7     3    34 1   
     8     3    35 1   
     9     3    36 1   
    10     4     5 1   
    11     4    37 1   
    12     5     6 1   
    13     5    38 1   
    14     5    39 1   
    15     6     7 1   
    16     6    40 1   
    17     6    41 1   
    18     7     8 1   
    19     7     9 2   
    20     8    42 1   
    21     8    43 1   
    22     8    44 1   
    23     9    10 1   
    24     9    45 1   
    25    10    11 1   
    26    10    46 1   
    27    10    47 1   
    28    11    12 ar  
    29    11    16 ar  
    30    12    13 ar  
    31    12    14 1   
    32    13    22 ar  
    33    13    48 1   
    34    14    15 1   
    35    15    49 1   
    36    15    50 1   
    37    15    51 1   
    38    16    17 1   
    39    16    18 ar  
    40    17    52 1   
    41    18    19 1   
    42    18    22 ar  
    43    19    20 1   
    44    19    21 1   
    45    22    23 1   
    46    23    24 1   
    47    23    53 1   
    48    23    54 1   
    49    24    25 1   
    50    24    55 1   
    51    24    56 1   
    52    25    26 ar  
    53    25    30 ar  
    54    26    27 ar  
    55    26    57 1   
    56    27    28 ar  
    57    27    59 1   
    58    28    29 ar  
    59    28    60 1   
    60    29    30 ar  
    61    29    61 1   
    62    30    58 1   
@<TRIPOS>SUBSTRUCTURE
     1 YFB         1 TEMP              0 ****  ****    0 ROOT
