@<TRIPOS>MOLECULE
YFD
   47    47     1     0     0
SMALL
abcg2


@<TRIPOS>ATOM
      1 CAA          7.2830     1.2270     0.0790 c3         1 YFD      -0.086100
      2 CAJ          5.9130     0.9440    -0.5220 c3         1 YFD      -0.075400
      3 CAL          4.8020     0.9170     0.5200 c3         1 YFD      -0.072400
      4 CAM          3.4260     0.6420    -0.0710 c3         1 YFD      -0.064400
      5 CAN          2.3350     0.5850     0.9980 c3         1 YFD      -0.020100
      6 CAS          0.9730     0.2700     0.4310 ca         1 YFD       0.040700
      7 CAV          0.5520    -1.0130     0.0410 ca         1 YFD      -0.295600
      8 CAQ          1.3770    -2.2630     0.2200 c          1 YFD       0.725600
      9 OAF          0.8530    -3.3420    -0.2280 o          1 YFD      -0.686500
     10 OAE          2.4800    -2.2350     0.7690 o          1 YFD      -0.686500
     11 CAR         -0.7430    -1.1440    -0.5320 ca         1 YFD       0.255100
     12 OAG         -1.1870    -2.3340    -0.9180 oh         1 YFD      -0.656100
     13 CAI          0.1190     1.3560     0.2650 ca         1 YFD      -0.294000
     14 CAT         -1.1530     1.2010    -0.2830 ca         1 YFD       0.176100
     15 OAO         -2.0170     2.2230    -0.4360 os         1 YFD      -0.353100
     16 CAB         -1.6280     3.5210    -0.0400 c3         1 YFD       0.159900
     17 CAU         -1.5970    -0.0490    -0.7070 ca         1 YFD      -0.223300
     18 CAK         -2.9770    -0.2450    -1.2850 c3         1 YFD       0.039100
     19 CAH         -3.9550    -0.6640    -0.2240 c2         1 YFD      -0.166200
     20 CAP         -5.0100     0.0110     0.2380 c2         1 YFD      -0.165400
     21 CAD         -5.4410     1.3670    -0.2350 c3         1 YFD      -0.040400
     22 CAC         -5.8770    -0.5660     1.3210 c3         1 YFD      -0.040400
     23 HAA1         7.3010     2.1990     0.5750 hc         1 YFD       0.022367
     24 HAA2         7.5520     0.4750     0.8230 hc         1 YFD       0.022367
     25 HAA3         8.0640     1.2300    -0.6830 hc         1 YFD       0.022367
     26 HAJ1         5.6840     1.7010    -1.2780 hc         1 YFD       0.035700
     27 HAJ2         5.9340    -0.0150    -1.0510 hc         1 YFD       0.035700
     28 HAL1         5.0280     0.1490     1.2690 hc         1 YFD       0.032200
     29 HAL2         4.7880     1.8710     1.0600 hc         1 YFD       0.032200
     30 HAM1         3.1810     1.4200    -0.8020 hc         1 YFD       0.045200
     31 HAM2         3.4480    -0.3040    -0.6170 hc         1 YFD       0.045200
     32 HAN1         2.6180    -0.1390     1.7580 hc         1 YFD       0.043700
     33 HAN2         2.2830     1.5610     1.4910 hc         1 YFD       0.043700
     34 HAI          0.4690     2.3310     0.5760 ha         1 YFD       0.093000
     35 HAG         -0.3820    -2.9710    -0.6920 ho         1 YFD       0.554000
     36 HAB1        -2.4730     4.1710    -0.2500 h1         1 YFD       0.026367
     37 HAB2        -1.4030     3.5750     1.0290 h1         1 YFD       0.026367
     38 HAB3        -0.7610     3.8800    -0.6000 h1         1 YFD       0.026367
     39 HAK1        -3.3070     0.6620    -1.7890 hc         1 YFD       0.045700
     40 HAK2        -2.9350    -1.0210    -2.0530 hc         1 YFD       0.045700
     41 HAH         -3.7450    -1.6340     0.2210 ha         1 YFD       0.175000
     42 HAD1        -6.4820     1.3470    -0.5650 hc         1 YFD       0.025867
     43 HAD2        -5.3900     2.0890     0.5840 hc         1 YFD       0.025867
     44 HAD3        -4.8370     1.7570    -1.0500 hc         1 YFD       0.025867
     45 HAC1        -5.9180     0.0980     2.1890 hc         1 YFD       0.025867
     46 HAC2        -6.9070    -0.6830     0.9760 hc         1 YFD       0.025867
     47 HAC3        -5.5230    -1.5400     1.6580 hc         1 YFD       0.025867
@<TRIPOS>BOND
     1     1     2 1   
     2     1    23 1   
     3     1    24 1   
     4     1    25 1   
     5     2     3 1   
     6     2    26 1   
     7     2    27 1   
     8     3     4 1   
     9     3    28 1   
    10     3    29 1   
    11     4     5 1   
    12     4    30 1   
    13     4    31 1   
    14     5     6 1   
    15     5    32 1   
    16     5    33 1   
    17     6     7 ar  
    18     6    13 ar  
    19     7     8 1   
    20     7    11 ar  
    21     8     9 1   
    22     8    10 1   
    23    11    12 1   
    24    11    17 ar  
    25    12    35 1   
    26    13    14 ar  
    27    13    34 1   
    28    14    15 1   
    29    14    17 ar  
    30    15    16 1   
    31    16    36 1   
    32    16    37 1   
    33    16    38 1   
    34    17    18 1   
    35    18    19 1   
    36    18    39 1   
    37    18    40 1   
    38    19    20 2   
    39    19    41 1   
    40    20    21 1   
    41    20    22 1   
    42    21    42 1   
    43    21    43 1   
    44    21    44 1   
    45    22    45 1   
    46    22    46 1   
    47    22    47 1   
@<TRIPOS>SUBSTRUCTURE
     1 YFD         1 TEMP              0 ****  ****    0 ROOT
