@<TRIPOS>MOLECULE
YFD
   47    47     1     0     0
SMALL
No Charge or Current Charge


@<TRIPOS>ATOM
      1 CAA          7.3940     1.1570    -0.0380 c3         1 YFD      -0.086100
      2 CAJ          5.9920     0.8140    -0.5760 c3         1 YFD      -0.075400
      3 CAL          4.8900     0.9040     0.5020 c3         1 YFD      -0.072400
      4 CAM          3.4850     0.5600    -0.0380 c3         1 YFD      -0.064400
      5 CAN          2.3800     0.6520     1.0390 c3         1 YFD      -0.020100
      6 CAS          0.9840     0.3450     0.4830 ca         1 YFD       0.040700
      7 CAV          0.5720    -0.9560     0.0960 ca         1 YFD      -0.295600
      8 CAQ          1.4510    -2.1630     0.2910 c          1 YFD       0.725600
      9 OAF          1.4520    -2.9950    -0.6070 o          1 YFD      -0.686500
     10 OAE          1.9410    -2.3620     1.3890 o          1 YFD      -0.686500
     11 CAR         -0.7000    -1.1290    -0.4860 ca         1 YFD       0.255100
     12 OAG         -1.0610    -2.3720    -0.9070 oh         1 YFD      -0.656100
     13 CAI          0.0950     1.4220     0.3150 ca         1 YFD      -0.294000
     14 CAT         -1.1880     1.2360    -0.2350 ca         1 YFD       0.176100
     15 OAO         -2.0670     2.2920    -0.3900 os         1 YFD      -0.353100
     16 CAB         -1.7580     3.6300     0.0360 c3         1 YFD       0.159900
     17 CAU         -1.5900    -0.0480    -0.6540 ca         1 YFD      -0.223300
     18 CAK         -2.9780    -0.2610    -1.2720 c3         1 YFD       0.039100
     19 CAH         -3.9990    -0.6920    -0.2310 c2         1 YFD      -0.166200
     20 CAP         -5.0850    -0.0300     0.2160 c2         1 YFD      -0.165400
     21 CAD         -5.5390     1.3560    -0.2230 c3         1 YFD      -0.040400
     22 CAC         -6.0140    -0.6230     1.2610 c3         1 YFD      -0.040400
     23 HAA1         7.4180     2.1800     0.3560 hc         1 YFD       0.022367
     24 HAA2         7.6800     0.4690     0.7660 hc         1 YFD       0.022367
     25 HAA3         8.1400     1.0790    -0.8380 hc         1 YFD       0.022367
     26 HAJ1         5.7500     1.4960    -1.4010 hc         1 YFD       0.035700
     27 HAJ2         6.0100    -0.2000    -0.9940 hc         1 YFD       0.035700
     28 HAL1         5.1360     0.2220     1.3260 hc         1 YFD       0.032200
     29 HAL2         4.8780     1.9190     0.9200 hc         1 YFD       0.032200
     30 HAM1         3.2370     1.2430    -0.8600 hc         1 YFD       0.045200
     31 HAM2         3.5020    -0.4510    -0.4610 hc         1 YFD       0.045200
     32 HAN1         2.6240    -0.0060     1.8790 hc         1 YFD       0.043700
     33 HAN2         2.4010     1.6640     1.4620 hc         1 YFD       0.043700
     34 HAI          0.4230     2.4120     0.6150 ha         1 YFD       0.093000
     35 HAG         -0.2040    -2.8820    -0.9160 ho         1 YFD       0.554000
     36 HAB1        -2.6040     4.2980    -0.1710 h1         1 YFD       0.026367
     37 HAB2        -1.5580     3.6590     1.1140 h1         1 YFD       0.026367
     38 HAB3        -0.8810     4.0160    -0.4990 h1         1 YFD       0.026367
     39 HAK1        -3.3000     0.6330    -1.8140 hc         1 YFD       0.045700
     40 HAK2        -2.9300    -1.0270    -2.0560 hc         1 YFD       0.045700
     41 HAH         -3.7790    -1.6840     0.1680 ha         1 YFD       0.175000
     42 HAD1        -6.5360     1.3140    -0.6790 hc         1 YFD       0.025867
     43 HAD2        -5.5980     2.0360     0.6360 hc         1 YFD       0.025867
     44 HAD3        -4.8710     1.8240    -0.9510 hc         1 YFD       0.025867
     45 HAC1        -6.0550     0.0080     2.1570 hc         1 YFD       0.025867
     46 HAC2        -7.0350    -0.7190     0.8730 hc         1 YFD       0.025867
     47 HAC3        -5.6880    -1.6210     1.5780 hc         1 YFD       0.025867
@<TRIPOS>BOND
     1     1     2 1   
     2     1    23 1   
     3     1    24 1   
     4     1    25 1   
     5     2     3 1   
     6     2    26 1   
     7     2    27 1   
     8     3     4 1   
     9     3    28 1   
    10     3    29 1   
    11     4     5 1   
    12     4    30 1   
    13     4    31 1   
    14     5     6 1   
    15     5    32 1   
    16     5    33 1   
    17     6     7 ar  
    18     6    13 ar  
    19     7     8 1   
    20     7    11 ar  
    21     8     9 1   
    22     8    10 1   
    23    11    12 1   
    24    11    17 ar  
    25    12    35 1   
    26    13    14 ar  
    27    13    34 1   
    28    14    15 1   
    29    14    17 ar  
    30    15    16 1   
    31    16    36 1   
    32    16    37 1   
    33    16    38 1   
    34    17    18 1   
    35    18    19 1   
    36    18    39 1   
    37    18    40 1   
    38    19    20 2   
    39    19    41 1   
    40    20    21 1   
    41    20    22 1   
    42    21    42 1   
    43    21    43 1   
    44    21    44 1   
    45    22    45 1   
    46    22    46 1   
    47    22    47 1   
@<TRIPOS>SUBSTRUCTURE
     1 YFD         1 TEMP              0 ****  ****    0 ROOT
