@<TRIPOS>MOLECULE
YFE
   48    49     1     0     0
SMALL
abcg2


@<TRIPOS>ATOM
      1 CAB          5.9570     1.4870    -0.1440 c3         1 YFE      -0.051400
      2 CAR          5.2160     0.7140    -1.1950 c2         1 YFE      -0.145400
      3 CAC          5.5930     1.0700    -2.6040 c3         1 YFE      -0.051400
      4 CAG          4.2950    -0.2270    -0.9510 c2         1 YFE      -0.207200
      5 CAN          3.7960    -0.7110     0.3830 c3         1 YFE       0.017100
      6 CAX          2.2870    -0.6900     0.4690 ca         1 YFE      -0.217300
      7 CAW          1.5360    -1.8540     0.6810 ca         1 YFE       0.134100
      8 CAM          0.1510    -1.7910     0.7900 ca         1 YFE      -0.235000
      9 OAQ          2.2350    -3.0070     0.7820 os         1 YFE      -0.362100
     10 CAA          1.5330    -4.2090     1.0160 c3         1 YFE       0.159900
     11 CAU          1.5950     0.5170     0.3560 ca         1 YFE       0.180100
     12 OAF          2.2530     1.6870     0.1540 oh         1 YFE      -0.519100
     13 CAY          0.2070     0.5990     0.4620 ca         1 YFE      -0.156600
     14 CAS         -0.4760     1.9540     0.3390 c          1 YFE       0.730600
     15 OAE         -0.5860     2.6120     1.3890 o          1 YFE      -0.716500
     16 OAD         -0.8690     2.2780    -0.7980 o          1 YFE      -0.716500
     17 CAV         -0.5110    -0.5680     0.6860 ca         1 YFE      -0.016300
     18 CAP         -2.0140    -0.5340     0.7330 c3         1 YFE      -0.020100
     19 CAO         -2.6220    -0.6730    -0.6730 c3         1 YFE      -0.040100
     20 CAT         -4.0910    -0.3610    -0.6800 ca         1 YFE      -0.060300
     21 CAK         -4.5130     0.9680    -0.7240 ca         1 YFE      -0.105500
     22 CAI         -5.8630     1.2870    -0.6930 ca         1 YFE      -0.122500
     23 CAH         -6.8170     0.2790    -0.6130 ca         1 YFE      -0.131000
     24 CAJ         -6.4080    -1.0470    -0.5670 ca         1 YFE      -0.122500
     25 CAL         -5.0540    -1.3630    -0.6000 ca         1 YFE      -0.105500
     26 HAB1         5.8000     2.5610    -0.2760 hc         1 YFE       0.034867
     27 HAB2         5.6780     1.2290     0.8740 hc         1 YFE       0.034867
     28 HAB3         7.0320     1.3190    -0.2440 hc         1 YFE       0.034867
     29 HAC1         6.6570     0.8920    -2.7750 hc         1 YFE       0.034867
     30 HAC2         5.0300     0.4940    -3.3390 hc         1 YFE       0.034867
     31 HAC3         5.4190     2.1310    -2.7960 hc         1 YFE       0.034867
     32 HAG          3.8360    -0.7120    -1.8080 ha         1 YFE       0.174000
     33 HAN1         4.1560    -1.7280     0.5430 hc         1 YFE       0.051700
     34 HAN2         4.2160    -0.1200     1.2010 hc         1 YFE       0.051700
     35 HAM         -0.4360    -2.6850     0.9590 ha         1 YFE       0.096000
     36 HAA1         0.9840    -4.1860     1.9610 h1         1 YFE       0.027033
     37 HAA2         0.8310    -4.4390     0.2100 h1         1 YFE       0.027033
     38 HAA3         2.2790    -4.9980     1.0640 h1         1 YFE       0.027033
     39 HAF          3.0990     1.5200    -0.2860 ho         1 YFE       0.448000
     40 HAP1        -2.3940    -1.3380     1.3690 hc         1 YFE       0.050200
     41 HAP2        -2.3540     0.4020     1.1810 hc         1 YFE       0.050200
     42 HAO1        -2.1010     0.0140    -1.3420 hc         1 YFE       0.060700
     43 HAO2        -2.4410    -1.6840    -1.0430 hc         1 YFE       0.060700
     44 HAK         -3.7690     1.7540    -0.7850 ha         1 YFE       0.128000
     45 HAL         -4.7450    -2.4010    -0.5670 ha         1 YFE       0.128000
     46 HAI         -6.1720     2.3240    -0.7330 ha         1 YFE       0.099000
     47 HAH         -7.8710     0.5240    -0.5910 ha         1 YFE       0.094000
     48 HAJ         -7.1430    -1.8390    -0.5080 ha         1 YFE       0.099000
@<TRIPOS>BOND
     1     1     2 1   
     2     1    26 1   
     3     1    27 1   
     4     1    28 1   
     5     2     3 1   
     6     2     4 2   
     7     3    29 1   
     8     3    30 1   
     9     3    31 1   
    10     4     5 1   
    11     4    32 1   
    12     5     6 1   
    13     5    33 1   
    14     5    34 1   
    15     6     7 ar  
    16     6    11 ar  
    17     7     8 ar  
    18     7     9 1   
    19     8    17 ar  
    20     8    35 1   
    21     9    10 1   
    22    10    36 1   
    23    10    37 1   
    24    10    38 1   
    25    11    12 1   
    26    11    13 ar  
    27    12    39 1   
    28    13    14 1   
    29    13    17 ar  
    30    14    15 1   
    31    14    16 1   
    32    17    18 1   
    33    18    19 1   
    34    18    40 1   
    35    18    41 1   
    36    19    20 1   
    37    19    42 1   
    38    19    43 1   
    39    20    21 ar  
    40    20    25 ar  
    41    21    22 ar  
    42    21    44 1   
    43    22    23 ar  
    44    22    46 1   
    45    23    24 ar  
    46    23    47 1   
    47    24    25 ar  
    48    24    48 1   
    49    25    45 1   
@<TRIPOS>SUBSTRUCTURE
     1 YFE         1 TEMP              0 ****  ****    0 ROOT
