@<TRIPOS>MOLECULE
YFE
   48    49     1     0     0
SMALL
No Charge or Current Charge


@<TRIPOS>ATOM
      1 CAB          5.9760     1.5310    -0.0820 c3         1 YFE      -0.051400
      2 CAR          5.3290     0.6560    -1.1480 c2         1 YFE      -0.145400
      3 CAC          5.8040     1.0260    -2.5420 c3         1 YFE      -0.051400
      4 CAG          4.4420    -0.3380    -0.9390 c2         1 YFE      -0.207200
      5 CAN          3.8620    -0.8400     0.3730 c3         1 YFE       0.017100
      6 CAX          2.3320    -0.6910     0.4250 ca         1 YFE      -0.217300
      7 CAW          1.4930    -1.8150     0.6050 ca         1 YFE       0.134100
      8 CAM          0.0950    -1.6410     0.6760 ca         1 YFE      -0.235000
      9 OAQ          2.0660    -3.0690     0.7090 os         1 YFE      -0.362100
     10 CAA          1.2900    -4.2670     0.8900 c3         1 YFE       0.159900
     11 CAU          1.7450     0.5890     0.3160 ca         1 YFE       0.180100
     12 OAF          2.5520     1.6720     0.1220 oh         1 YFE      -0.519100
     13 CAY          0.3510     0.7610     0.3920 ca         1 YFE      -0.156600
     14 CAS         -0.2260     2.1410     0.2690 c          1 YFE       0.730600
     15 OAE         -0.4060     2.7830     1.2950 o          1 YFE      -0.716500
     16 OAD         -0.5360     2.5400    -0.8450 o          1 YFE      -0.716500
     17 CAV         -0.4840    -0.3640     0.5770 ca         1 YFE      -0.016300
     18 CAP         -2.0060    -0.2410     0.6570 c3         1 YFE      -0.020100
     19 CAO         -2.6790    -0.4220    -0.7190 c3         1 YFE      -0.040100
     20 CAT         -4.1950    -0.3010    -0.6370 ca         1 YFE      -0.060300
     21 CAK         -4.8130     0.9590    -0.7540 ca         1 YFE      -0.105500
     22 CAI         -6.2120     1.0730    -0.6740 ca         1 YFE      -0.122500
     23 CAH         -7.0010    -0.0720    -0.4750 ca         1 YFE      -0.131000
     24 CAJ         -6.3900    -1.3320    -0.3550 ca         1 YFE      -0.122500
     25 CAL         -4.9910    -1.4460    -0.4350 ca         1 YFE      -0.105500
     26 HAB1         5.7480     2.5900    -0.2550 hc         1 YFE       0.034867
     27 HAB2         5.6520     1.2980     0.9360 hc         1 YFE       0.034867
     28 HAB3         7.0670     1.4240    -0.1020 hc         1 YFE       0.034867
     29 HAC1         6.8900     0.9090    -2.6340 hc         1 YFE       0.034867
     30 HAC2         5.3400     0.3970    -3.3120 hc         1 YFE       0.034867
     31 HAC3         5.5580     2.0680    -2.7800 hc         1 YFE       0.034867
     32 HAG          4.0570    -0.8950    -1.7970 ha         1 YFE       0.174000
     33 HAN1         4.1710    -1.8840     0.5000 hc         1 YFE       0.051700
     34 HAN2         4.2940    -0.3280     1.2380 hc         1 YFE       0.051700
     35 HAM         -0.5640    -2.4920     0.8110 ha         1 YFE       0.096000
     36 HAA1         0.7090    -4.2190     1.8200 h1         1 YFE       0.027033
     37 HAA2         0.5990    -4.4140     0.0490 h1         1 YFE       0.027033
     38 HAA3         1.9490    -5.1410     0.9450 h1         1 YFE       0.027033
     39 HAF          3.4370     1.3200    -0.1150 ho         1 YFE       0.448000
     40 HAP1        -2.4040    -0.9970     1.3450 hc         1 YFE       0.050200
     41 HAP2        -2.3040     0.7250     1.0810 hc         1 YFE       0.050200
     42 HAO1        -2.2790     0.3230    -1.4160 hc         1 YFE       0.060700
     43 HAO2        -2.3990    -1.4010    -1.1280 hc         1 YFE       0.060700
     44 HAK         -4.2080     1.8510    -0.9060 ha         1 YFE       0.128000
     45 HAL         -4.5250    -2.4250    -0.3390 ha         1 YFE       0.128000
     46 HAI         -6.6840     2.0490    -0.7650 ha         1 YFE       0.099000
     47 HAH         -8.0830     0.0160    -0.4120 ha         1 YFE       0.094000
     48 HAJ         -6.9990    -2.2190    -0.2000 ha         1 YFE       0.099000
@<TRIPOS>BOND
     1     1     2 1   
     2     1    26 1   
     3     1    27 1   
     4     1    28 1   
     5     2     3 1   
     6     2     4 2   
     7     3    29 1   
     8     3    30 1   
     9     3    31 1   
    10     4     5 1   
    11     4    32 1   
    12     5     6 1   
    13     5    33 1   
    14     5    34 1   
    15     6     7 ar  
    16     6    11 ar  
    17     7     8 ar  
    18     7     9 1   
    19     8    17 ar  
    20     8    35 1   
    21     9    10 1   
    22    10    36 1   
    23    10    37 1   
    24    10    38 1   
    25    11    12 1   
    26    11    13 ar  
    27    12    39 1   
    28    13    14 1   
    29    13    17 ar  
    30    14    15 1   
    31    14    16 1   
    32    17    18 1   
    33    18    19 1   
    34    18    40 1   
    35    18    41 1   
    36    19    20 1   
    37    19    42 1   
    38    19    43 1   
    39    20    21 ar  
    40    20    25 ar  
    41    21    22 ar  
    42    21    44 1   
    43    22    23 ar  
    44    22    46 1   
    45    23    24 ar  
    46    23    47 1   
    47    24    25 ar  
    48    24    48 1   
    49    25    45 1   
@<TRIPOS>SUBSTRUCTURE
     1 YFE         1 TEMP              0 ****  ****    0 ROOT
