@<TRIPOS>MOLECULE
YFF
   42    42     1     0     0
SMALL
abcg2


@<TRIPOS>ATOM
      1 F            7.5730    -2.0890    -0.4770 f          1 YFF      -0.241000
      2 O1          -4.9050     0.5300    -2.0120 o          1 YFF      -0.710500
      3 O2          -3.5320     1.5140    -0.5560 o          1 YFF      -0.710500
      4 NAA         -1.4640     3.6740     0.9840 nt         1 YFF      -0.576000
      5 NAC          6.2380    -0.1050    -1.5930 n2         1 YFF      -0.820100
      6 OAE         -0.6420     3.6800    -1.1210 o          1 YFF      -0.617100
      7 OAF         -1.8980     0.6090     1.9270 o          1 YFF      -0.639100
      8 CAH         -3.6520    -3.2490    -0.7380 ca         1 YFF      -0.129000
      9 CAI         -4.0970    -2.0020    -1.1490 ca         1 YFF      -0.090000
     10 CAJ         -2.5830    -3.3440     0.1420 ca         1 YFF      -0.144000
     11 CAK         -3.4980    -0.8320    -0.6900 ca         1 YFF      -0.108600
     12 CAL         -1.9720    -2.1890     0.6060 ca         1 YFF      -0.110000
     13 CAM          2.2400     0.6480     0.0820 c3         1 YFF      -0.086400
     14 CAN          3.6280     0.6920    -0.5370 c3         1 YFF       0.209800
     15 CAO          1.4160     1.8610    -0.3300 c3         1 YFF      -0.074400
     16 CAP          6.3020    -1.8990     0.0150 c3         1 YFF       0.150300
     17 NAR          4.4020    -0.4650    -0.1450 nu         1 YFF      -0.952400
     18 NAS         -0.7310     0.7430    -0.0090 ns         1 YFF      -0.485900
     19 CAU         -0.7210     3.1730    -0.0130 c          1 YFF       0.596100
     20 CAV          5.6390    -0.7140    -0.6470 c2         1 YFF       0.582200
     21 CAW         -1.7110     0.2510     0.7730 c          1 YFF       0.667700
     22 CAX         -2.4240    -0.9370     0.1940 ca         1 YFF      -0.124600
     23 CAZ          0.0560     1.9030     0.3520 c3         1 YFF       0.030700
     24 HNAA        -2.1250     4.4080     0.7890 hn         1 YFF       0.315500
     25 HNAB        -1.6320     3.1230     1.8100 hn         1 YFF       0.315500
     26 HNAC         5.6890     0.6730    -1.9470 hn         1 YFF       0.379400
     27 HAH         -4.1380    -4.1460    -1.1020 ha         1 YFF       0.090000
     28 HAI         -4.9290    -1.9270    -1.8360 ha         1 YFF       0.132000
     29 HAJ         -2.2240    -4.3120     0.4670 ha         1 YFF       0.088000
     30 HAL         -1.1350    -2.2630     1.2890 ha         1 YFF       0.095000
     31 HAM          1.7400    -0.2740    -0.2220 hc         1 YFF       0.051700
     32 HAMA         2.3310     0.6170     1.1730 hc         1 YFF       0.051700
     33 HAN          3.5350     0.7070    -1.6270 h1         1 YFF       0.037700
     34 HANA         4.1340     1.6220    -0.2480 h1         1 YFF       0.037700
     35 HAO          1.9550     2.7750    -0.0680 hc         1 YFF       0.055700
     36 HAOA         1.2860     1.8770    -1.4150 hc         1 YFF       0.055700
     37 HAP          5.7130    -2.8020    -0.1670 h1         1 YFF       0.047200
     38 HAPA         6.3610    -1.7440     1.0950 h1         1 YFF       0.047200
     39 HNAS        -0.7360     0.4800    -0.9830 hn         1 YFF       0.325500
     40 HAZ          0.2060     1.8720     1.4340 h1         1 YFF       0.067700
     41 HNAR         4.1720    -0.8740     0.7480 hn         1 YFF       0.477000
     42 C1          -4.0280     0.5260    -1.1300 c          1 YFF       0.711600
@<TRIPOS>BOND
     1     1    16 1   
     2     2    42 1   
     3     3    42 1   
     4     4    19 1   
     5     4    24 1   
     6     4    25 1   
     7     5    20 2   
     8     5    26 1   
     9     6    19 2   
    10     7    21 2   
    11     8     9 ar  
    12     8    10 ar  
    13     8    27 1   
    14     9    11 ar  
    15     9    28 1   
    16    10    12 ar  
    17    10    29 1   
    18    11    22 ar  
    19    11    42 1   
    20    12    22 ar  
    21    12    30 1   
    22    13    14 1   
    23    13    15 1   
    24    13    31 1   
    25    13    32 1   
    26    14    17 1   
    27    14    33 1   
    28    14    34 1   
    29    15    23 1   
    30    15    35 1   
    31    15    36 1   
    32    16    20 1   
    33    16    37 1   
    34    16    38 1   
    35    17    20 1   
    36    17    41 1   
    37    18    21 1   
    38    18    23 1   
    39    18    39 1   
    40    19    23 1   
    41    21    22 1   
    42    23    40 1   
@<TRIPOS>SUBSTRUCTURE
     1 YFF         1 TEMP              0 ****  ****    0 ROOT
