@<TRIPOS>MOLECULE
YFF
   42    42     1     0     0
SMALL
No Charge or Current Charge


@<TRIPOS>ATOM
      1 F            5.7920    -2.3740     1.1750 f          1 YFF      -0.241000
      2 O1          -3.7670     0.8160    -1.8420 o          1 YFF      -0.710500
      3 O2          -3.8560     1.2990     0.2570 o          1 YFF      -0.710500
      4 NAA         -2.0550     3.6040     0.0390 nt         1 YFF      -0.576000
      5 NAC          6.1300    -0.1690    -1.5590 n2         1 YFF      -0.820100
      6 OAE         -0.1130     4.5990    -0.3750 o          1 YFF      -0.617100
      7 OAF         -0.4580    -0.0570     1.9740 o          1 YFF      -0.639100
      8 CAH         -3.6060    -3.2740    -0.3910 ca         1 YFF      -0.129000
      9 CAI         -3.9510    -1.9610    -0.7460 ca         1 YFF      -0.090000
     10 CAJ         -2.4740    -3.5080     0.3990 ca         1 YFF      -0.144000
     11 CAK         -3.1640    -0.8660    -0.3250 ca         1 YFF      -0.108600
     12 CAL         -1.6760    -2.4320     0.8190 ca         1 YFF      -0.110000
     13 CAM          2.1710     0.8060    -0.0480 c3         1 YFF      -0.086400
     14 CAN          3.5550     0.7380    -0.7220 c3         1 YFF       0.209800
     15 CAO          1.3810     2.0840    -0.4240 c3         1 YFF      -0.074400
     16 CAP          6.0430    -2.2250    -0.1550 c3         1 YFF       0.150300
     17 NAR          4.2560    -0.4960    -0.3290 nu         1 YFF      -0.952400
     18 NAS         -0.8800     1.0710     0.0460 ns         1 YFF      -0.485900
     19 CAU         -0.7040     3.5850    -0.0340 c          1 YFF       0.596100
     20 CAV          5.5140    -0.9030    -0.7240 c2         1 YFF       0.582200
     21 CAW         -1.0480    -0.0000     0.9010 c          1 YFF       0.667700
     22 CAX         -1.9890    -1.1030     0.4500 ca         1 YFF      -0.124600
     23 CAZ          0.0100     2.2330     0.2920 c3         1 YFF       0.030700
     24 HNAA        -2.5490     4.4550    -0.1820 hn         1 YFF       0.315500
     25 HNAB        -2.5660     2.7610     0.2780 hn         1 YFF       0.315500
     26 HNAC         5.5130     0.6250    -1.7560 hn         1 YFF       0.379400
     27 HAH         -4.2250    -4.1060    -0.7170 ha         1 YFF       0.090000
     28 HAI         -4.8480    -1.7860    -1.3370 ha         1 YFF       0.132000
     29 HAJ         -2.2100    -4.5240     0.6830 ha         1 YFF       0.088000
     30 HAL         -0.7920    -2.6360     1.4190 ha         1 YFF       0.095000
     31 HAM          1.5940    -0.0800    -0.3390 hc         1 YFF       0.051700
     32 HAMA         2.2980     0.7710     1.0410 hc         1 YFF       0.051700
     33 HAN          3.4250     0.7660    -1.8130 h1         1 YFF       0.037700
     34 HANA         4.1450     1.6160    -0.4240 h1         1 YFF       0.037700
     35 HAO          2.0020     2.9570    -0.1850 hc         1 YFF       0.055700
     36 HAOA         1.2210     2.1010    -1.5100 hc         1 YFF       0.055700
     37 HAP          7.1280    -2.2870    -0.3060 h1         1 YFF       0.047200
     38 HAPA         5.5770    -3.0630    -0.6880 h1         1 YFF       0.047200
     39 HNAS        -1.3710     1.0190    -0.8390 hn         1 YFF       0.325500
     40 HAZ          0.2050     2.2800     1.3710 h1         1 YFF       0.067700
     41 HNAR         3.8330    -1.0640     0.4050 hn         1 YFF       0.477000
     42 C1          -3.6510     0.5210    -0.6630 c          1 YFF       0.711600
@<TRIPOS>BOND
     1     1    16 1   
     2     2    42 1   
     3     3    42 1   
     4     4    19 1   
     5     4    24 1   
     6     4    25 1   
     7     5    20 2   
     8     5    26 1   
     9     6    19 2   
    10     7    21 2   
    11     8     9 ar  
    12     8    10 ar  
    13     8    27 1   
    14     9    11 ar  
    15     9    28 1   
    16    10    12 ar  
    17    10    29 1   
    18    11    22 ar  
    19    11    42 1   
    20    12    22 ar  
    21    12    30 1   
    22    13    14 1   
    23    13    15 1   
    24    13    31 1   
    25    13    32 1   
    26    14    17 1   
    27    14    33 1   
    28    14    34 1   
    29    15    23 1   
    30    15    35 1   
    31    15    36 1   
    32    16    20 1   
    33    16    37 1   
    34    16    38 1   
    35    17    20 1   
    36    17    41 1   
    37    18    21 1   
    38    18    23 1   
    39    18    39 1   
    40    19    23 1   
    41    21    22 1   
    42    23    40 1   
@<TRIPOS>SUBSTRUCTURE
     1 YFF         1 TEMP              0 ****  ****    0 ROOT
