@<TRIPOS>MOLECULE
YFH
  220   232     1     0     0
SMALL
abcg2


@<TRIPOS>ATOM
      1 C13          3.9240   -36.8330   -21.4000 ca         1 YFH       0.103000
      2 C15          3.6580   -38.4240   -19.5700 ca         1 YFH       0.502000
      3 C17          5.5520   -38.9770   -18.0550 c3         1 YFH       0.244500
      4 C21          8.9190   -41.9980   -15.8950 c5         1 YFH       0.144500
      5 C22          9.7010   -41.0220   -15.0110 c5         1 YFH       0.107600
      6 C24          8.1040   -42.2060   -13.8880 c5         1 YFH       0.136300
      7 C26          6.9570   -41.6040   -14.6970 c5         1 YFH       0.130800
      8 C03          2.5770   -36.9620   -21.7470 ca         1 YFH      -0.369500
      9 C04          1.7700   -37.8180   -21.0300 ca         1 YFH       0.130000
     10 C05          2.2890   -38.5440   -19.9630 ca         1 YFH      -0.398500
     11 C14          4.4410   -37.5340   -20.3430 ca         1 YFH      -0.242000
     12 C18          5.8510   -40.2210   -17.2180 c3         1 YFH      -0.099400
     13 C19          7.3090   -40.3360   -16.7880 c3         1 YFH       0.189800
     14 C25          8.7380   -43.1480   -14.9070 c5         1 YFH      -0.114400
     15 C27          5.7420   -37.6690   -17.2830 c3         1 YFH       0.013600
     16 C29          3.1390   -36.7830   -16.7660 ca         1 YFH      -0.121000
     17 C30          1.8990   -37.3640   -16.5250 ca         1 YFH      -0.085000
     18 C31          0.7590   -36.8530   -17.1340 ca         1 YFH      -0.120000
     19 C32          0.8510   -35.7670   -17.9910 ca         1 YFH      -0.094000
     20 C33          2.0900   -35.1880   -18.2280 ca         1 YFH      -0.120000
     21 C34          3.2270   -35.6800   -17.6090 ca         1 YFH      -0.085000
     22 C36          1.2010   -34.0060   -21.7110 c          1 YFH       0.660700
     23 C37          0.1100   -33.2580   -21.0620 ca         1 YFH      -0.238600
     24 C38         -1.2070   -33.7140   -20.9300 ca         1 YFH      -0.013000
     25 C39         -2.1640   -32.9940   -20.2480 ca         1 YFH      -0.223000
     26 C40         -1.8670   -31.7530   -19.6370 ca         1 YFH       0.393000
     27 C42         -4.1910   -31.4650   -18.8290 c6         1 YFH       0.176800
     28 C43         -5.0560   -30.4770   -19.6130 c6         1 YFH       0.134300
     29 C45         -5.5710   -28.8120   -17.9070 c3         1 YFH       0.201000
     30 C46         -7.0590   -28.8670   -18.0740 c2         1 YFH      -0.100400
     31 C47         -7.8740   -29.8070   -17.5700 ce         1 YFH      -0.072400
     32 C48         -7.4420   -30.9190   -16.6990 ca         1 YFH      -0.043800
     33 C49         -6.8180   -30.6990   -15.4710 ca         1 YFH      -0.100000
     34 C50         -6.4140   -31.7550   -14.6670 ca         1 YFH      -0.103000
     35 C51         -6.6460   -33.0530   -15.0900 ca         1 YFH       0.119000
     36 C53         -7.2810   -33.3060   -16.2960 ca         1 YFH      -0.103000
     37 C54         -7.6790   -32.2390   -17.0860 ca         1 YFH      -0.100000
     38 C55         -9.3320   -29.7090   -17.9440 c6         1 YFH      -0.038200
     39 C56         -9.8450   -28.2880   -17.6920 c6         1 YFH      -0.059400
     40 C57         -8.9510   -27.1940   -18.3250 c6         1 YFH      -0.043000
     41 C58         -8.4770   -26.2050   -17.2480 c3         1 YFH       0.192800
     42 C60         -9.6480   -25.8090   -15.1010 c6         1 YFH       0.160800
     43 C61         -9.0530   -24.6470   -14.2870 c6         1 YFH       0.055000
     44 C63         -6.7070   -24.1940   -14.9220 c          1 YFH       0.563100
     45 C64         -6.2870   -25.1740   -13.8190 c3         1 YFH       0.116800
     46 C66         -3.8720   -24.7800   -13.5490 c6         1 YFH       0.181300
     47 C67         -2.5600   -25.5420   -13.4490 c6         1 YFH       0.172300
     48 C69         -1.0010   -26.7850   -14.8840 c3         1 YFH       0.088800
     49 C70         -0.6680   -26.8620   -16.3660 c          1 YFH       0.592100
     50 C72         -1.1460   -25.7850   -18.5120 c3         1 YFH       0.060700
     51 C73         -1.8950   -24.5220   -19.0150 c3         1 YFH      -0.047000
     52 C74         -3.3500   -24.5840   -18.5330 c3         1 YFH      -0.093100
     53 C75         -1.8990   -24.5250   -20.5450 c3         1 YFH      -0.093100
     54 C76         -1.2590   -23.2260   -18.5110 c3         1 YFH      -0.093100
     55 C77          0.3320   -25.7890   -18.9270 c          1 YFH       0.619100
     56 C79          2.0920   -26.4600   -20.4260 c5         1 YFH       0.028700
     57 C80          2.5220   -25.0580   -20.8270 c          1 YFH       0.608100
     58 C82          4.4580   -23.6120   -21.1660 c3         1 YFH       0.165000
     59 C83          5.8740   -23.5110   -20.6100 c3         1 YFH      -0.104100
     60 C84          4.4650   -23.5970   -22.6810 ca         1 YFH      -0.086300
     61 C85          4.2600   -22.4070   -23.3700 ca         1 YFH      -0.097000
     62 C86          4.2830   -22.3710   -24.7550 ca         1 YFH      -0.095000
     63 C87          4.5170   -23.5320   -25.4940 ca         1 YFH      -0.008000
     64 C88          4.5290   -23.5040   -26.9580 cc         1 YFH      -0.180000
     65 C89          3.9720   -24.3750   -27.8590 cd         1 YFH       0.301300
     66 C90          3.1680   -25.5910   -27.5380 c3         1 YFH      -0.122400
     67 C92          4.8620   -22.9600   -29.2940 cc         1 YFH       0.411300
     68 C94          4.7420   -24.7220   -24.8000 ca         1 YFH      -0.095000
     69 C95          4.7100   -24.7530   -23.4150 ca         1 YFH      -0.097000
     70 C97          2.1470   -27.3910   -21.6390 c5         1 YFH      -0.089400
     71 C98          1.0230   -28.3730   -21.3670 c5         1 YFH       0.154300
     72 CA0         -0.0650   -27.4770   -20.7720 c5         1 YFH       0.073000
     73 CA3         -3.3650   -27.1720   -14.9890 c6         1 YFH       0.172300
     74 CA4         -4.6930   -26.4550   -15.0960 c6         1 YFH       0.181300
     75 CA6         -8.5670   -23.3080   -16.2360 c6         1 YFH       0.055000
     76 CA7         -9.7270   -24.1520   -16.8110 c6         1 YFH       0.160800
     77 CA8         -9.7130   -26.4460   -19.4150 c3         1 YFH      -0.081100
     78 CA9         -7.6900   -27.8270   -18.9550 c6         1 YFH      -0.037200
     79 CAA         -3.4910   -28.7400   -19.1590 c6         1 YFH       0.134300
     80 CAB         -2.6110   -29.7270   -18.3900 c6         1 YFH       0.176800
     81 CAC         -0.5330   -31.2990   -19.7790 ca         1 YFH      -0.223000
     82 CAD          0.4100   -32.0300   -20.4620 ca         1 YFH      -0.013000
     83 F09          0.6520   -42.1590   -19.8800 f          1 YFH      -0.098667
     84 F10          2.6370   -41.5140   -20.4310 f          1 YFH      -0.098667
     85 F11          0.9360   -40.8730   -21.5910 f          1 YFH      -0.098667
     86 N16          4.1990   -39.1100   -18.5590 nu         1 YFH      -0.936200
     87 N20          7.5310   -41.5620   -16.0550 n3         1 YFH      -0.740600
     88 N41         -2.7940   -31.0730   -18.9140 nh         1 YFH      -0.810400
     89 N44         -4.9000   -29.0990   -19.1720 n3         1 YFH      -0.708600
     90 N59         -9.5680   -25.5610   -16.5330 n3         1 YFH      -0.748600
     91 N62         -8.0300   -23.9900   -15.0680 n          1 YFH      -0.404800
     92 N65         -4.9490   -25.6840   -13.9030 n3         1 YFH      -0.746600
     93 N68         -2.3110   -26.2200   -14.7060 n3         1 YFH      -0.759600
     94 N71         -1.2410   -25.8860   -17.0790 ns         1 YFH      -0.482900
     95 N78          0.7010   -26.5050   -20.0080 n          1 YFH      -0.393800
     96 N81          3.8280   -24.8090   -20.6520 ns         1 YFH      -0.503900
     97 N91          4.1750   -24.0480   -29.1720 nd         1 YFH      -0.637000
     98 O23          9.1020   -41.1990   -13.7220 os         1 YFH      -0.454000
     99 O99          0.6460   -29.0270   -22.5420 oh         1 YFH      -0.642000
    100 OA1          1.1560   -25.1330   -18.3060 o          1 YFH      -0.591100
    101 OA2          0.0880   -27.7060   -16.8330 o          1 YFH      -0.627100
    102 OA5         -5.8780   -23.6230   -15.6190 o          1 YFH      -0.607100
    103 OAE          2.3780   -33.7860   -21.4980 o          1 YFH      -0.574100
    104 S02          1.9270   -36.1560   -23.1680 sy         1 YFH       1.196300
    105 S06          1.1690   -39.6930   -19.2560 sy         1 YFH       1.026500
    106 S93          5.3280   -22.2360   -27.8150 ss         1 YFH      -0.035400
    107 CL52        -6.1510   -34.3820   -14.0910 cl         1 YFH      -0.197000
    108 H1           4.5720   -36.1650   -21.9510 ha         1 YFH       0.149000
    109 H2           6.2460   -38.9620   -18.9040 h1         1 YFH       0.066700
    110 H3           9.3930   -42.2230   -16.8510 h1         1 YFH       0.089700
    111 H4          10.7680   -41.2680   -14.9760 h1         1 YFH       0.049700
    112 H5           9.6090   -39.9810   -15.3340 h1         1 YFH       0.049700
    113 H6           7.8300   -42.6080   -12.9130 h1         1 YFH       0.097700
    114 H7           6.6990   -40.6070   -14.3190 h1         1 YFH       0.058200
    115 H8           6.0510   -42.2180   -14.6540 h1         1 YFH       0.058200
    116 H9           0.7210   -37.9140   -21.2850 ha         1 YFH       0.144000
    117 H10          5.4900   -37.4040   -20.1130 ha         1 YFH       0.123000
    118 H11          5.1990   -40.2260   -16.3390 hc         1 YFH       0.072200
    119 H12          5.5990   -41.1060   -17.8080 hc         1 YFH       0.072200
    120 H13          7.9430   -40.3450   -17.6790 h1         1 YFH       0.031200
    121 H14          7.6020   -39.4470   -16.2070 h1         1 YFH       0.031200
    122 H15          9.6700   -43.5960   -14.5620 hc         1 YFH       0.073200
    123 H16          8.0680   -43.9240   -15.2750 hc         1 YFH       0.073200
    124 H17          6.7310   -37.6480   -16.8270 h1         1 YFH       0.081700
    125 H18          5.7010   -36.8040   -17.9460 h1         1 YFH       0.081700
    126 H19          1.8250   -38.2270   -15.8780 ha         1 YFH       0.127500
    127 H20         -0.2010   -37.3150   -16.9410 ha         1 YFH       0.127000
    128 H21         -0.0340   -35.3770   -18.4800 ha         1 YFH       0.120000
    129 H22          2.1800   -34.3460   -18.8910 ha         1 YFH       0.127000
    130 H23          4.1790   -35.1970   -17.7850 ha         1 YFH       0.127500
    131 H24         -1.5170   -34.6720   -21.3260 ha         1 YFH       0.120000
    132 H25         -3.1540   -33.4210   -20.1900 ha         1 YFH       0.121000
    133 H26         -4.4810   -31.4740   -17.7740 h1         1 YFH       0.064200
    134 H27         -4.3520   -32.4750   -19.1950 h1         1 YFH       0.064200
    135 H28         -6.1060   -30.7670   -19.5370 h1         1 YFH       0.064200
    136 H29         -4.7840   -30.5350   -20.6720 h1         1 YFH       0.064200
    137 H30         -5.2370   -29.4550   -17.0860 h1         1 YFH       0.040200
    138 H31         -5.2930   -27.7910   -17.6220 h1         1 YFH       0.040200
    139 H32         -6.6540   -29.6860   -15.1290 ha         1 YFH       0.118000
    140 H33         -5.9300   -31.5620   -13.7190 ha         1 YFH       0.131500
    141 H34         -7.4620   -34.3220   -16.6200 ha         1 YFH       0.131500
    142 H35         -8.1730   -32.4430   -18.0280 ha         1 YFH       0.118000
    143 H36         -9.9320   -30.4220   -17.3780 hc         1 YFH       0.050700
    144 H37         -9.4620   -29.9690   -19.0020 hc         1 YFH       0.050700
    145 H38         -9.9110   -28.1470   -16.6110 hc         1 YFH       0.047700
    146 H39        -10.8680   -28.2030   -18.0650 hc         1 YFH       0.047700
    147 H40         -7.8340   -26.7450   -16.5450 h1         1 YFH       0.036200
    148 H41         -7.8330   -25.4600   -17.7320 h1         1 YFH       0.036200
    149 H42        -10.6890   -25.9570   -14.7930 h1         1 YFH       0.055700
    150 H43         -9.1200   -26.7350   -14.8680 h1         1 YFH       0.055700
    151 H44         -8.6710   -24.9850   -13.3230 h1         1 YFH       0.059950
    152 H45         -9.8200   -23.9030   -14.0600 h1         1 YFH       0.059950
    153 H46         -6.4240   -24.6890   -12.8470 h1         1 YFH       0.066700
    154 H47         -6.9640   -26.0350   -13.8310 h1         1 YFH       0.066700
    155 H48         -4.1000   -24.3300   -12.5790 h1         1 YFH       0.045950
    156 H49         -3.7400   -23.9600   -14.2660 h1         1 YFH       0.045950
    157 H50         -2.5960   -26.2460   -12.6020 h1         1 YFH       0.040450
    158 H51         -1.7510   -24.8340   -13.2550 h1         1 YFH       0.040450
    159 H52         -0.8820   -27.7870   -14.4500 h1         1 YFH       0.067200
    160 H53         -0.2530   -26.1400   -14.4110 h1         1 YFH       0.067200
    161 H54         -1.6660   -26.6370   -18.9570 h1         1 YFH       0.041700
    162 H55         -3.4530   -24.4530   -17.4530 hc         1 YFH       0.043033
    163 H56         -3.9220   -23.7800   -18.9990 hc         1 YFH       0.043033
    164 H57         -3.8260   -25.5280   -18.8030 hc         1 YFH       0.043033
    165 H58         -2.3780   -25.4220   -20.9410 hc         1 YFH       0.043033
    166 H59         -2.4600   -23.6640   -20.9130 hc         1 YFH       0.043033
    167 H60         -0.8930   -24.4630   -20.9610 hc         1 YFH       0.043033
    168 H61         -1.1700   -23.2030   -17.4230 hc         1 YFH       0.043033
    169 H62         -0.2690   -23.0630   -18.9340 hc         1 YFH       0.043033
    170 H63         -1.8850   -22.3810   -18.8040 hc         1 YFH       0.043033
    171 H64          2.7390   -26.8410   -19.6280 h1         1 YFH       0.071700
    172 H65          3.8890   -22.7460   -20.8200 h1         1 YFH       0.075700
    173 H66          5.8610   -23.4810   -19.5190 hc         1 YFH       0.045700
    174 H67          6.4820   -24.3610   -20.9250 hc         1 YFH       0.045700
    175 H68          6.3550   -22.6020   -20.9680 hc         1 YFH       0.045700
    176 H69          4.0570   -21.4960   -22.8190 ha         1 YFH       0.112500
    177 H70          4.0920   -21.4340   -25.2650 ha         1 YFH       0.117500
    178 H71          2.3490   -25.6980   -28.2480 hc         1 YFH       0.053033
    179 H72          3.7730   -26.4980   -27.6010 hc         1 YFH       0.053033
    180 H73          2.7470   -25.5470   -26.5350 hc         1 YFH       0.053033
    181 H74          5.1350   -22.5200   -30.2430 h5         1 YFH       0.051100
    182 H75          4.9600   -25.6310   -25.3460 ha         1 YFH       0.117500
    183 H76          4.8750   -25.6950   -22.9070 ha         1 YFH       0.112500
    184 H77          1.9240   -26.8410   -22.5580 hc         1 YFH       0.074700
    185 H78          3.1220   -27.8630   -21.7480 hc         1 YFH       0.074700
    186 H79          1.3490   -29.0840   -20.5950 h1         1 YFH       0.041700
    187 H80         -0.7510   -28.0420   -20.1470 h1         1 YFH       0.053700
    188 H81         -0.6380   -27.0040   -21.5750 h1         1 YFH       0.053700
    189 H82         -3.4130   -27.9560   -14.2170 h1         1 YFH       0.040450
    190 H83         -3.1620   -27.6690   -15.9400 h1         1 YFH       0.040450
    191 H84         -4.6810   -25.8410   -16.0080 h1         1 YFH       0.045950
    192 H85         -5.4900   -27.1940   -15.2190 h1         1 YFH       0.045950
    193 H86         -7.7730   -23.1880   -16.9690 h1         1 YFH       0.059950
    194 H87         -8.9230   -22.3060   -15.9730 h1         1 YFH       0.059950
    195 H88        -10.6800   -23.8210   -16.3900 h1         1 YFH       0.055700
    196 H89         -9.7950   -23.9850   -17.8870 h1         1 YFH       0.055700
    197 H90        -10.5920   -25.9400   -19.0110 hc         1 YFH       0.036033
    198 H91         -9.0810   -25.6940   -19.8960 hc         1 YFH       0.036033
    199 H92        -10.0580   -27.1350   -20.1890 hc         1 YFH       0.036033
    200 H93         -7.9720   -28.2820   -19.9130 hc         1 YFH       0.058200
    201 H94         -6.9680   -27.0420   -19.2000 hc         1 YFH       0.058200
    202 H95         -3.1260   -28.6760   -20.1910 h1         1 YFH       0.064200
    203 H96         -3.3810   -27.7460   -18.7190 h1         1 YFH       0.064200
    204 H97         -1.5800   -29.4020   -18.4370 h1         1 YFH       0.064200
    205 H98         -2.8800   -29.7320   -17.3280 h1         1 YFH       0.064200
    206 H99         -0.2140   -30.3630   -19.3500 ha         1 YFH       0.121000
    207 H100         1.4140   -31.6280   -20.5290 ha         1 YFH       0.120000
    208 H101         3.5810   -39.6750   -17.9950 hn         1 YFH       0.528000
    209 H108        -1.8690   -25.2860   -16.5620 hn         1 YFH       0.354500
    210 H109         4.4070   -25.5040   -20.2040 hn         1 YFH       0.316500
    211 H102         0.0310   -29.7310   -22.3170 ho         1 YFH       0.451000
    212 S28          4.5620   -37.4240   -15.9230 ss         1 YFH      -0.188000
    213 C08          1.3640   -41.1610   -20.3740 c3         1 YFH       0.142000
    214 N35          0.8420   -35.0270   -22.5720 ns         1 YFH      -0.587300
    215 O01          1.0810   -37.0850   -23.8950 o          1 YFH      -0.528000
    216 O07          1.6230   -40.1760   -17.9610 o          1 YFH      -0.486500
    217 O12         -0.2020   -39.2570   -19.4400 o          1 YFH      -0.486500
    218 OAF          3.0100   -35.4900   -23.8580 o          1 YFH      -0.528000
    219 O96          1.7600   -24.2720   -21.3630 o          1 YFH      -0.589100
    220 H103        -0.1190   -35.1990   -22.8250 hn         1 YFH       0.345500
@<TRIPOS>BOND
     1     1     8 ar  
     2     1    11 ar  
     3     1   108 1   
     4     2    10 ar  
     5     2    11 ar  
     6     2    86 1   
     7     3    12 1   
     8     3    15 1   
     9     3    86 1   
    10     3   109 1   
    11     4     5 1   
    12     4    14 1   
    13     4    87 1   
    14     4   110 1   
    15     5    98 1   
    16     5   111 1   
    17     5   112 1   
    18     6     7 1   
    19     6    14 1   
    20     6    98 1   
    21     6   113 1   
    22     7    87 1   
    23     7   114 1   
    24     7   115 1   
    25     8     9 ar  
    26     8   104 1   
    27     9    10 ar  
    28     9   116 1   
    29    10   105 1   
    30    11   117 1   
    31    12    13 1   
    32    12   118 1   
    33    12   119 1   
    34    13    87 1   
    35    13   120 1   
    36    13   121 1   
    37    14   122 1   
    38    14   123 1   
    39    15   124 1   
    40    15   125 1   
    41    15   212 1   
    42    16    17 ar  
    43    16    21 ar  
    44    16   212 1   
    45    17    18 ar  
    46    17   126 1   
    47    18    19 ar  
    48    18   127 1   
    49    19    20 ar  
    50    19   128 1   
    51    20    21 ar  
    52    20   129 1   
    53    21   130 1   
    54    22    23 1   
    55    22   103 2   
    56    22   214 1   
    57    23    24 ar  
    58    23    82 ar  
    59    24    25 ar  
    60    24   131 1   
    61    25    26 ar  
    62    25   132 1   
    63    26    81 ar  
    64    26    88 1   
    65    27    28 1   
    66    27    88 1   
    67    27   133 1   
    68    27   134 1   
    69    28    89 1   
    70    28   135 1   
    71    28   136 1   
    72    29    30 1   
    73    29    89 1   
    74    29   137 1   
    75    29   138 1   
    76    30    31 2   
    77    30    78 1   
    78    31    32 1   
    79    31    38 1   
    80    32    33 ar  
    81    32    37 ar  
    82    33    34 ar  
    83    33   139 1   
    84    34    35 ar  
    85    34   140 1   
    86    35    36 ar  
    87    35   107 1   
    88    36    37 ar  
    89    36   141 1   
    90    37   142 1   
    91    38    39 1   
    92    38   143 1   
    93    38   144 1   
    94    39    40 1   
    95    39   145 1   
    96    39   146 1   
    97    40    41 1   
    98    40    77 1   
    99    40    78 1   
   100    41    90 1   
   101    41   147 1   
   102    41   148 1   
   103    42    43 1   
   104    42    90 1   
   105    42   149 1   
   106    42   150 1   
   107    43    91 1   
   108    43   151 1   
   109    43   152 1   
   110    44    45 1   
   111    44    91 1   
   112    44   102 2   
   113    45    92 1   
   114    45   153 1   
   115    45   154 1   
   116    46    47 1   
   117    46    92 1   
   118    46   155 1   
   119    46   156 1   
   120    47    93 1   
   121    47   157 1   
   122    47   158 1   
   123    48    49 1   
   124    48    93 1   
   125    48   159 1   
   126    48   160 1   
   127    49    94 1   
   128    49   101 2   
   129    50    51 1   
   130    50    55 1   
   131    50    94 1   
   132    50   161 1   
   133    51    52 1   
   134    51    53 1   
   135    51    54 1   
   136    52   162 1   
   137    52   163 1   
   138    52   164 1   
   139    53   165 1   
   140    53   166 1   
   141    53   167 1   
   142    54   168 1   
   143    54   169 1   
   144    54   170 1   
   145    55    95 1   
   146    55   100 2   
   147    56    57 1   
   148    56    70 1   
   149    56    95 1   
   150    56   171 1   
   151    57    96 1   
   152    57   219 2   
   153    58    59 1   
   154    58    60 1   
   155    58    96 1   
   156    58   172 1   
   157    59   173 1   
   158    59   174 1   
   159    59   175 1   
   160    60    61 ar  
   161    60    69 ar  
   162    61    62 ar  
   163    61   176 1   
   164    62    63 ar  
   165    62   177 1   
   166    63    64 1   
   167    63    68 ar  
   168    64    65 2   
   169    64   106 1   
   170    65    66 1   
   171    65    97 1   
   172    66   178 1   
   173    66   179 1   
   174    66   180 1   
   175    67    97 2   
   176    67   106 1   
   177    67   181 1   
   178    68    69 ar  
   179    68   182 1   
   180    69   183 1   
   181    70    71 1   
   182    70   184 1   
   183    70   185 1   
   184    71    72 1   
   185    71    99 1   
   186    71   186 1   
   187    72    95 1   
   188    72   187 1   
   189    72   188 1   
   190    73    74 1   
   191    73    93 1   
   192    73   189 1   
   193    73   190 1   
   194    74    92 1   
   195    74   191 1   
   196    74   192 1   
   197    75    76 1   
   198    75    91 1   
   199    75   193 1   
   200    75   194 1   
   201    76    90 1   
   202    76   195 1   
   203    76   196 1   
   204    77   197 1   
   205    77   198 1   
   206    77   199 1   
   207    78   200 1   
   208    78   201 1   
   209    79    80 1   
   210    79    89 1   
   211    79   202 1   
   212    79   203 1   
   213    80    88 1   
   214    80   204 1   
   215    80   205 1   
   216    81    82 ar  
   217    81   206 1   
   218    82   207 1   
   219    83   213 1   
   220    84   213 1   
   221    85   213 1   
   222    86   208 1   
   223    94   209 1   
   224    96   210 1   
   225    99   211 1   
   226   104   214 1   
   227   104   215 2   
   228   104   218 2   
   229   105   213 1   
   230   105   216 2   
   231   105   217 2   
   232   214   220 1   
@<TRIPOS>SUBSTRUCTURE
     1 YFH         1 TEMP              0 ****  ****    0 ROOT
