@<TRIPOS>MOLECULE
YFH
  220   232     1     0     0
SMALL
No Charge or Current Charge


@<TRIPOS>ATOM
      1 C13          4.2950   -35.3020   -20.5060 ca         1 YFH       0.103000
      2 C15          3.6000   -37.3800   -19.4340 ca         1 YFH       0.502000
      3 C17          3.9340   -37.8230   -16.9190 c3         1 YFH       0.244500
      4 C21          5.3370   -40.1360   -12.5690 c5         1 YFH       0.144500
      5 C22          4.3730   -39.4520   -11.5280 c5         1 YFH       0.107600
      6 C24          3.6530   -41.5500   -12.2070 c5         1 YFH       0.136300
      7 C26          3.4290   -41.0240   -13.6700 c5         1 YFH       0.130800
      8 C03          3.6340   -35.6880   -21.6790 ca         1 YFH      -0.369500
      9 C04          2.9800   -36.9270   -21.7450 ca         1 YFH       0.130000
     10 C05          2.9690   -37.7790   -20.6230 ca         1 YFH      -0.398500
     11 C14          4.2780   -36.1520   -19.3950 ca         1 YFH      -0.242000
     12 C18          3.9780   -39.1240   -16.0850 c3         1 YFH      -0.099400
     13 C19          4.4860   -38.9270   -14.6420 c3         1 YFH       0.189800
     14 C25          5.1920   -41.6100   -12.1400 c5         1 YFH      -0.114400
     15 C27          2.9990   -36.7260   -16.3260 c3         1 YFH       0.013600
     16 C29          0.4880   -37.0500   -17.7640 ca         1 YFH      -0.121000
     17 C30         -0.4280   -38.0150   -18.2200 ca         1 YFH      -0.085000
     18 C31         -1.0400   -37.8750   -19.4780 ca         1 YFH      -0.120000
     19 C32         -0.7460   -36.7610   -20.2830 ca         1 YFH      -0.094000
     20 C33          0.1560   -35.7870   -19.8240 ca         1 YFH      -0.120000
     21 C34          0.7700   -35.9270   -18.5680 ca         1 YFH      -0.085000
     22 C36          1.8800   -32.9010   -21.8530 c          1 YFH       0.660700
     23 C37          0.4630   -32.3770   -21.8270 ca         1 YFH      -0.238600
     24 C38         -0.4320   -32.5490   -22.9110 ca         1 YFH      -0.013000
     25 C39         -1.7490   -32.0670   -22.8250 ca         1 YFH      -0.223000
     26 C40         -2.1990   -31.4230   -21.6670 ca         1 YFH       0.393000
     27 C42         -4.4080   -31.5690   -20.5720 c6         1 YFH       0.176800
     28 C43         -5.8750   -31.0280   -20.5920 c6         1 YFH       0.134300
     29 C45         -5.5390   -28.9660   -19.2130 c3         1 YFH       0.201000
     30 C46         -6.4160   -29.4380   -18.0580 c2         1 YFH      -0.100400
     31 C47         -6.0950   -30.3880   -17.1460 ce         1 YFH      -0.072400
     32 C48         -4.7730   -31.0690   -17.0730 ca         1 YFH      -0.043800
     33 C49         -3.6020   -30.3200   -16.8550 ca         1 YFH      -0.100000
     34 C50         -2.3480   -30.9530   -16.8230 ca         1 YFH      -0.103000
     35 C51         -2.2620   -32.3430   -17.0010 ca         1 YFH       0.119000
     36 C53         -3.4280   -33.1020   -17.1950 ca         1 YFH      -0.103000
     37 C54         -4.6840   -32.4670   -17.2240 ca         1 YFH      -0.100000
     38 C55         -7.1430   -30.7720   -16.1060 c6         1 YFH      -0.038200
     39 C56         -7.7250   -29.4790   -15.4990 c6         1 YFH      -0.059400
     40 C57         -8.3270   -28.4800   -16.5610 c6         1 YFH      -0.043000
     41 C58         -7.9370   -26.9820   -16.2180 c3         1 YFH       0.192800
     42 C60         -8.4860   -26.7980   -13.7480 c6         1 YFH       0.160800
     43 C61         -7.0490   -26.5470   -13.2050 c6         1 YFH       0.055000
     44 C63         -5.2710   -24.7400   -12.8160 c          1 YFH       0.563100
     45 C64         -4.5120   -25.6820   -11.8110 c3         1 YFH       0.116800
     46 C66         -2.0940   -25.4110   -12.4150 c6         1 YFH       0.181300
     47 C67         -0.7940   -26.1180   -12.9170 c6         1 YFH       0.172300
     48 C69          0.2120   -27.3730   -14.8560 c3         1 YFH       0.088800
     49 C70          0.1120   -27.5940   -16.3880 c          1 YFH       0.592100
     50 C72         -1.0080   -26.6060   -18.4400 c3         1 YFH       0.060700
     51 C73         -2.2640   -25.6820   -18.6810 c3         1 YFH      -0.047000
     52 C74         -3.4370   -26.1320   -17.7620 c3         1 YFH      -0.093100
     53 C75         -2.7550   -25.7710   -20.1500 c3         1 YFH      -0.093100
     54 C76         -1.9350   -24.1960   -18.3630 c3         1 YFH      -0.093100
     55 C77          0.2570   -26.2080   -19.2850 c          1 YFH       0.619100
     56 C79          1.4020   -26.1850   -21.5550 c5         1 YFH       0.028700
     57 C80          1.2980   -24.6580   -21.8770 c          1 YFH       0.608100
     58 C82          2.6790   -22.8980   -23.0230 c3         1 YFH       0.165000
     59 C83          3.3590   -22.0570   -21.9240 c3         1 YFH      -0.104100
     60 C84          3.4790   -22.9300   -24.3240 ca         1 YFH      -0.086300
     61 C85          2.8860   -22.4900   -25.5240 ca         1 YFH      -0.097000
     62 C86          3.6040   -22.5320   -26.7320 ca         1 YFH      -0.095000
     63 C87          4.9210   -23.0260   -26.7630 ca         1 YFH      -0.008000
     64 C88          5.6520   -23.0650   -28.0280 cc         1 YFH      -0.180000
     65 C89          6.2150   -24.2260   -28.5220 cd         1 YFH       0.301300
     66 C90          6.2070   -25.5920   -27.8850 c3         1 YFH      -0.122400
     67 C92          6.6940   -22.8120   -30.1720 cc         1 YFH       0.411300
     68 C94          5.5200   -23.4560   -25.5630 ca         1 YFH      -0.095000
     69 C95          4.8040   -23.4140   -24.3540 ca         1 YFH      -0.097000
     70 C97          1.0380   -26.9940   -22.8340 c5         1 YFH      -0.089400
     71 C98          0.7170   -28.3880   -22.2470 c5         1 YFH       0.154300
     72 CA0         -0.1740   -28.0100   -21.0270 c5         1 YFH       0.073000
     73 CA3         -2.1430   -27.7740   -14.1050 c6         1 YFH       0.172300
     74 CA4         -3.4530   -27.1070   -13.5780 c6         1 YFH       0.181300
     75 CA6         -6.9980   -24.4260   -14.6330 c6         1 YFH       0.055000
     76 CA7         -8.4360   -24.8070   -15.0970 c6         1 YFH       0.160800
     77 CA8         -9.8870   -28.5900   -16.5770 c3         1 YFH      -0.081100
     78 CA9         -7.8130   -28.8230   -18.0140 c6         1 YFH      -0.037200
     79 CAA         -5.1740   -28.9810   -21.6730 c6         1 YFH       0.134300
     80 CAB         -3.6820   -29.4520   -21.6820 c6         1 YFH       0.176800
     81 CAC         -1.3180   -31.2490   -20.5920 ca         1 YFH      -0.223000
     82 CAD          0.0010   -31.7180   -20.6660 ca         1 YFH      -0.013000
     83 F09          3.1550   -41.7220   -21.6590 f          1 YFH      -0.098667
     84 F10          4.5900   -40.5070   -20.5450 f          1 YFH      -0.098667
     85 F11          4.0770   -39.9780   -22.6020 f          1 YFH      -0.098667
     86 N16          3.5590   -38.1770   -18.2960 nu         1 YFH      -0.936200
     87 N20          4.6600   -40.1980   -13.9050 n3         1 YFH      -0.740600
     88 N41         -3.5120   -30.9380   -21.5930 nh         1 YFH      -0.810400
     89 N44         -5.9510   -29.5360   -20.5250 n3         1 YFH      -0.708600
     90 N59         -8.6800   -26.2760   -15.1260 n3         1 YFH      -0.748600
     91 N62         -6.4750   -25.1750   -13.4380 n          1 YFH      -0.404800
     92 N65         -3.2560   -26.3530   -12.2970 n3         1 YFH      -0.746600
     93 N68         -1.0210   -26.7930   -14.2270 n3         1 YFH      -0.759600
     94 N71         -0.6580   -26.6410   -17.0070 ns         1 YFH      -0.482900
     95 N78          0.3790   -26.7020   -20.6050 n          1 YFH      -0.393800
     96 N81          2.4290   -24.2590   -22.5580 ns         1 YFH      -0.503900
     97 N91          6.8280   -24.0700   -29.7570 nd         1 YFH      -0.637000
     98 O23          3.3450   -40.4540   -11.3040 os         1 YFH      -0.454000
     99 O99          0.0400   -29.2080   -23.1970 oh         1 YFH      -0.642000
    100 OA1          1.1140   -25.4480   -18.8420 o          1 YFH      -0.591100
    101 OA2          0.6380   -28.5200   -16.9940 o          1 YFH      -0.627100
    102 OA5         -4.8230   -23.6270   -13.0770 o          1 YFH      -0.607100
    103 OAE          2.6800   -32.6220   -20.9750 o          1 YFH      -0.574100
    104 S02          3.6070   -34.5880   -23.0930 sy         1 YFH       1.196300
    105 S06          2.1970   -39.3950   -20.8230 sy         1 YFH       1.026500
    106 S93          5.8080   -21.7280   -29.1250 ss         1 YFH      -0.035400
    107 Cl52        -0.6910   -33.1300   -16.9780 cl         1 YFH      -0.197000
    108 H1           4.8120   -34.3450   -20.4410 ha         1 YFH       0.149000
    109 H2           4.9570   -37.4200   -16.9240 h1         1 YFH       0.066700
    110 H3           6.3650   -39.7450   -12.5830 h1         1 YFH       0.089700
    111 H4           4.8830   -39.2490   -10.5770 h1         1 YFH       0.049700
    112 H5           3.9250   -38.5190   -11.8930 h1         1 YFH       0.049700
    113 H6           3.1090   -42.4690   -11.9470 h1         1 YFH       0.097700
    114 H7           2.5010   -40.4380   -13.7390 h1         1 YFH       0.058200
    115 H8           3.3630   -41.8510   -14.3900 h1         1 YFH       0.058200
    116 H9           2.4870   -37.2270   -22.6710 ha         1 YFH       0.144000
    117 H10          4.7960   -35.8320   -18.4990 ha         1 YFH       0.123000
    118 H11          2.9840   -39.5850   -16.0630 hc         1 YFH       0.072200
    119 H12          4.6440   -39.8370   -16.5840 hc         1 YFH       0.072200
    120 H13          5.4500   -38.4010   -14.6860 h1         1 YFH       0.031200
    121 H14          3.7850   -38.2770   -14.1020 h1         1 YFH       0.031200
    122 H15          5.5750   -41.8150   -11.1340 hc         1 YFH       0.073200
    123 H16          5.6420   -42.3210   -12.8430 hc         1 YFH       0.073200
    124 H17          3.3690   -36.4550   -15.3300 h1         1 YFH       0.081700
    125 H18          3.0520   -35.8180   -16.9340 h1         1 YFH       0.081700
    126 H19         -0.6590   -38.8790   -17.6010 ha         1 YFH       0.127500
    127 H20         -1.7410   -38.6290   -19.8280 ha         1 YFH       0.127000
    128 H21         -1.2190   -36.6510   -21.2560 ha         1 YFH       0.120000
    129 H22          0.3740   -34.9190   -20.4390 ha         1 YFH       0.127000
    130 H23          1.4480   -35.1520   -18.2230 ha         1 YFH       0.127500
    131 H24         -0.1250   -33.0440   -23.8290 ha         1 YFH       0.120000
    132 H25         -2.4310   -32.1970   -23.6600 ha         1 YFH       0.121000
    133 H26         -3.9880   -31.4010   -19.5730 h1         1 YFH       0.064200
    134 H27         -4.4400   -32.6580   -20.7230 h1         1 YFH       0.064200
    135 H28         -6.4380   -31.4900   -19.7680 h1         1 YFH       0.064200
    136 H29         -6.3510   -31.3790   -21.5200 h1         1 YFH       0.064200
    137 H30         -4.4900   -29.2090   -19.0090 h1         1 YFH       0.040200
    138 H31         -5.5930   -27.8700   -19.2610 h1         1 YFH       0.040200
    139 H32         -3.6660   -29.2440   -16.7190 ha         1 YFH       0.118000
    140 H33         -1.4450   -30.3700   -16.6670 ha         1 YFH       0.131500
    141 H34         -3.3580   -34.1790   -17.3270 ha         1 YFH       0.131500
    142 H35         -5.5840   -33.0560   -17.3840 ha         1 YFH       0.118000
    143 H36         -6.6980   -31.3910   -15.3140 hc         1 YFH       0.050700
    144 H37         -7.9380   -31.3710   -16.5720 hc         1 YFH       0.050700
    145 H38         -6.9090   -28.9930   -14.9500 hc         1 YFH       0.047700
    146 H39         -8.4760   -29.7500   -14.7440 hc         1 YFH       0.047700
    147 H40         -6.8560   -26.9450   -16.0270 h1         1 YFH       0.036200
    148 H41         -8.0970   -26.4010   -17.1360 h1         1 YFH       0.036200
    149 H42         -9.1890   -26.2890   -13.0720 h1         1 YFH       0.055700
    150 H43         -8.7330   -27.8630   -13.6720 h1         1 YFH       0.055700
    151 H44         -6.3690   -27.2820   -13.6530 h1         1 YFH       0.059950
    152 H45         -7.0860   -26.7530   -12.1270 h1         1 YFH       0.059950
    153 H46         -4.2820   -25.0640   -10.9330 h1         1 YFH       0.066700
    154 H47         -5.2020   -26.4460   -11.4430 h1         1 YFH       0.066700
    155 H48         -1.8850   -24.9410   -11.4430 h1         1 YFH       0.045950
    156 H49         -2.3310   -24.6010   -13.1200 h1         1 YFH       0.045950
    157 H50         -0.4670   -26.8480   -12.1620 h1         1 YFH       0.040450
    158 H51          0.0020   -25.3650   -13.0080 h1         1 YFH       0.040450
    159 H52          0.4820   -28.3290   -14.3880 h1         1 YFH       0.067200
    160 H53          1.0570   -26.6860   -14.7140 h1         1 YFH       0.067200
    161 H54         -1.2920   -27.6280   -18.7170 h1         1 YFH       0.041700
    162 H55         -3.2100   -25.9680   -16.7020 hc         1 YFH       0.043033
    163 H56         -4.3550   -25.5740   -17.9880 hc         1 YFH       0.043033
    164 H57         -3.6490   -27.1970   -17.9000 hc         1 YFH       0.043033
    165 H58         -3.0260   -26.7980   -20.4090 hc         1 YFH       0.043033
    166 H59         -3.6460   -25.1480   -20.3030 hc         1 YFH       0.043033
    167 H60         -1.9910   -25.4230   -20.8550 hc         1 YFH       0.043033
    168 H61         -1.5870   -24.0720   -17.3310 hc         1 YFH       0.043033
    169 H62         -1.1580   -23.8070   -19.0320 hc         1 YFH       0.043033
    170 H63         -2.8240   -23.5650   -18.4900 hc         1 YFH       0.043033
    171 H64          2.4150   -26.4140   -21.1980 h1         1 YFH       0.071700
    172 H65          1.7080   -22.4280   -23.2360 h1         1 YFH       0.075700
    173 H66          2.7170   -21.9900   -21.0370 hc         1 YFH       0.045700
    174 H67          4.3160   -22.4960   -21.6200 hc         1 YFH       0.045700
    175 H68          3.5450   -21.0380   -22.2840 hc         1 YFH       0.045700
    176 H69          1.8640   -22.1160   -25.5250 ha         1 YFH       0.112500
    177 H70          3.1300   -22.1890   -27.6490 ha         1 YFH       0.117500
    178 H71          6.3400   -26.3820   -28.6340 hc         1 YFH       0.053033
    179 H72          7.0170   -25.6860   -27.1540 hc         1 YFH       0.053033
    180 H73          5.2580   -25.7840   -27.3710 hc         1 YFH       0.053033
    181 H74          7.0830   -22.4310   -31.1090 h5         1 YFH       0.051100
    182 H75          6.5450   -23.8200   -25.5650 ha         1 YFH       0.117500
    183 H76          5.2830   -23.7610   -23.4410 ha         1 YFH       0.112500
    184 H77          0.1630   -26.5690   -23.3420 hc         1 YFH       0.074700
    185 H78          1.8560   -27.0250   -23.5620 hc         1 YFH       0.074700
    186 H79          1.6410   -28.8760   -21.9060 h1         1 YFH       0.041700
    187 H80         -0.0970   -28.7610   -20.2300 h1         1 YFH       0.053700
    188 H81         -1.2240   -27.9080   -21.3210 h1         1 YFH       0.053700
    189 H82         -1.8610   -28.5850   -13.4170 h1         1 YFH       0.040450
    190 H83         -2.3540   -28.2370   -15.0780 h1         1 YFH       0.040450
    191 H84         -3.8240   -26.4310   -14.3630 h1         1 YFH       0.045950
    192 H85         -4.2100   -27.8920   -13.4450 h1         1 YFH       0.045950
    193 H86         -6.3060   -24.6010   -15.4700 h1         1 YFH       0.059950
    194 H87         -6.9800   -23.3470   -14.4280 h1         1 YFH       0.059950
    195 H88         -9.1500   -24.3320   -14.4090 h1         1 YFH       0.055700
    196 H89         -8.6230   -24.3630   -16.0860 h1         1 YFH       0.055700
    197 H90        -10.3260   -28.3700   -15.5970 hc         1 YFH       0.036033
    198 H91        -10.3290   -27.8940   -17.3000 hc         1 YFH       0.036033
    199 H92        -10.2130   -29.6010   -16.8500 hc         1 YFH       0.036033
    200 H93         -8.4890   -29.5500   -18.4850 hc         1 YFH       0.058200
    201 H94         -7.8690   -27.9390   -18.6640 hc         1 YFH       0.058200
    202 H95         -5.6360   -29.2970   -22.6200 h1         1 YFH       0.064200
    203 H96         -5.2030   -27.8820   -21.6650 h1         1 YFH       0.064200
    204 H97         -3.2050   -29.0730   -22.5990 h1         1 YFH       0.064200
    205 H98         -3.1660   -28.9810   -20.8350 h1         1 YFH       0.064200
    206 H99         -1.6600   -30.7480   -19.6910 ha         1 YFH       0.121000
    207 H100         0.6590   -31.5760   -19.8100 ha         1 YFH       0.120000
    208 H101         2.8590   -38.9170   -18.3650 hn         1 YFH       0.528000
    209 H108        -1.0700   -25.9630   -16.3760 hn         1 YFH       0.354500
    210 H109         3.1210   -24.9690   -22.7640 hn         1 YFH       0.316500
    211 H102        -0.0770   -30.0910   -22.7830 ho         1 YFH       0.451000
    212 S28          1.2260   -37.2560   -16.1430 ss         1 YFH      -0.188000
    213 C08          3.5720   -40.4530   -21.4380 c3         1 YFH       0.142000
    214 N35          2.2050   -33.7030   -22.8980 ns         1 YFH      -0.587300
    215 O01          3.3920   -35.3810   -24.3060 o          1 YFH      -0.528000
    216 O07          1.8060   -39.9110   -19.5030 o          1 YFH      -0.486500
    217 O12          1.2070   -39.2920   -21.9060 o          1 YFH      -0.486500
    218 OAF          4.7220   -33.6420   -22.9790 o          1 YFH      -0.528000
    219 O96          0.3840   -23.8950   -21.5930 o          1 YFH      -0.589100
    220 H103         1.5100   -33.9580   -23.5750 hn         1 YFH       0.345500
@<TRIPOS>BOND
     1     1     8 ar  
     2     1    11 ar  
     3     1   108 1   
     4     2    10 ar  
     5     2    11 ar  
     6     2    86 1   
     7     3    12 1   
     8     3    15 1   
     9     3    86 1   
    10     3   109 1   
    11     4     5 1   
    12     4    14 1   
    13     4    87 1   
    14     4   110 1   
    15     5    98 1   
    16     5   111 1   
    17     5   112 1   
    18     6     7 1   
    19     6    14 1   
    20     6    98 1   
    21     6   113 1   
    22     7    87 1   
    23     7   114 1   
    24     7   115 1   
    25     8     9 ar  
    26     8   104 1   
    27     9    10 ar  
    28     9   116 1   
    29    10   105 1   
    30    11   117 1   
    31    12    13 1   
    32    12   118 1   
    33    12   119 1   
    34    13    87 1   
    35    13   120 1   
    36    13   121 1   
    37    14   122 1   
    38    14   123 1   
    39    15   124 1   
    40    15   125 1   
    41    15   212 1   
    42    16    17 ar  
    43    16    21 ar  
    44    16   212 1   
    45    17    18 ar  
    46    17   126 1   
    47    18    19 ar  
    48    18   127 1   
    49    19    20 ar  
    50    19   128 1   
    51    20    21 ar  
    52    20   129 1   
    53    21   130 1   
    54    22    23 1   
    55    22   103 2   
    56    22   214 1   
    57    23    24 ar  
    58    23    82 ar  
    59    24    25 ar  
    60    24   131 1   
    61    25    26 ar  
    62    25   132 1   
    63    26    81 ar  
    64    26    88 1   
    65    27    28 1   
    66    27    88 1   
    67    27   133 1   
    68    27   134 1   
    69    28    89 1   
    70    28   135 1   
    71    28   136 1   
    72    29    30 1   
    73    29    89 1   
    74    29   137 1   
    75    29   138 1   
    76    30    31 2   
    77    30    78 1   
    78    31    32 1   
    79    31    38 1   
    80    32    33 ar  
    81    32    37 ar  
    82    33    34 ar  
    83    33   139 1   
    84    34    35 ar  
    85    34   140 1   
    86    35    36 ar  
    87    35   107 1   
    88    36    37 ar  
    89    36   141 1   
    90    37   142 1   
    91    38    39 1   
    92    38   143 1   
    93    38   144 1   
    94    39    40 1   
    95    39   145 1   
    96    39   146 1   
    97    40    41 1   
    98    40    77 1   
    99    40    78 1   
   100    41    90 1   
   101    41   147 1   
   102    41   148 1   
   103    42    43 1   
   104    42    90 1   
   105    42   149 1   
   106    42   150 1   
   107    43    91 1   
   108    43   151 1   
   109    43   152 1   
   110    44    45 1   
   111    44    91 1   
   112    44   102 2   
   113    45    92 1   
   114    45   153 1   
   115    45   154 1   
   116    46    47 1   
   117    46    92 1   
   118    46   155 1   
   119    46   156 1   
   120    47    93 1   
   121    47   157 1   
   122    47   158 1   
   123    48    49 1   
   124    48    93 1   
   125    48   159 1   
   126    48   160 1   
   127    49    94 1   
   128    49   101 2   
   129    50    51 1   
   130    50    55 1   
   131    50    94 1   
   132    50   161 1   
   133    51    52 1   
   134    51    53 1   
   135    51    54 1   
   136    52   162 1   
   137    52   163 1   
   138    52   164 1   
   139    53   165 1   
   140    53   166 1   
   141    53   167 1   
   142    54   168 1   
   143    54   169 1   
   144    54   170 1   
   145    55    95 1   
   146    55   100 2   
   147    56    57 1   
   148    56    70 1   
   149    56    95 1   
   150    56   171 1   
   151    57    96 1   
   152    57   219 2   
   153    58    59 1   
   154    58    60 1   
   155    58    96 1   
   156    58   172 1   
   157    59   173 1   
   158    59   174 1   
   159    59   175 1   
   160    60    61 ar  
   161    60    69 ar  
   162    61    62 ar  
   163    61   176 1   
   164    62    63 ar  
   165    62   177 1   
   166    63    64 1   
   167    63    68 ar  
   168    64    65 2   
   169    64   106 1   
   170    65    66 1   
   171    65    97 1   
   172    66   178 1   
   173    66   179 1   
   174    66   180 1   
   175    67    97 2   
   176    67   106 1   
   177    67   181 1   
   178    68    69 ar  
   179    68   182 1   
   180    69   183 1   
   181    70    71 1   
   182    70   184 1   
   183    70   185 1   
   184    71    72 1   
   185    71    99 1   
   186    71   186 1   
   187    72    95 1   
   188    72   187 1   
   189    72   188 1   
   190    73    74 1   
   191    73    93 1   
   192    73   189 1   
   193    73   190 1   
   194    74    92 1   
   195    74   191 1   
   196    74   192 1   
   197    75    76 1   
   198    75    91 1   
   199    75   193 1   
   200    75   194 1   
   201    76    90 1   
   202    76   195 1   
   203    76   196 1   
   204    77   197 1   
   205    77   198 1   
   206    77   199 1   
   207    78   200 1   
   208    78   201 1   
   209    79    80 1   
   210    79    89 1   
   211    79   202 1   
   212    79   203 1   
   213    80    88 1   
   214    80   204 1   
   215    80   205 1   
   216    81    82 ar  
   217    81   206 1   
   218    82   207 1   
   219    83   213 1   
   220    84   213 1   
   221    85   213 1   
   222    86   208 1   
   223    94   209 1   
   224    96   210 1   
   225    99   211 1   
   226   104   214 1   
   227   104   215 2   
   228   104   218 2   
   229   105   213 1   
   230   105   216 2   
   231   105   217 2   
   232   214   220 1   
@<TRIPOS>SUBSTRUCTURE
     1 YFH         1 TEMP              0 ****  ****    0 ROOT
