@<TRIPOS>MOLECULE
YFK
   64    66     1     0     0
SMALL
abcg2


@<TRIPOS>ATOM
      1 C04          8.7580    11.2350    27.8930 c3         1 YFK       0.140900
      2 C05          7.8130    10.7710    26.7830 c3         1 YFK      -0.070400
      3 C06          7.5340    11.8430    25.7420 c5         1 YFK      -0.154700
      4 C09          6.0580    13.6230    25.0670 c5         1 YFK       0.100000
      5 C10          6.8780    13.1230    26.2590 c5         1 YFK      -0.088400
      6 C14         11.8760    13.2020    26.9250 c3         1 YFK       0.035700
      7 C15         13.0260    12.7900    27.8440 c3         1 YFK      -0.085400
      8 C16         14.4280    12.9550    27.2520 c3         1 YFK      -0.059700
      9 C17         14.6070    12.1670    25.9590 c3         1 YFK      -0.091100
     10 C18         15.4620    12.5250    28.2870 c3         1 YFK      -0.091100
     11 C21         11.2300    16.5950    25.4720 cc         1 YFK      -0.159300
     12 C23         11.5180    18.8150    25.5440 ca         1 YFK      -0.145800
     13 C24         10.7200    18.4980    24.4260 ca         1 YFK      -0.004200
     14 C25         10.2320    19.4740    23.5490 ca         1 YFK      -0.170000
     15 C26         10.5670    20.7770    23.8340 ca         1 YFK      -0.041000
     16 C28         11.8340    20.1630    25.8090 ca         1 YFK       0.201100
     17 O32         10.4180    14.4560    24.9580 o          1 YFK      -0.632100
     18 C07          6.5740    11.3670    24.6610 c          1 YFK       0.562000
     19 C12          9.0310    10.1180    28.8610 c2         1 YFK      -0.243200
     20 C22         11.8350    17.5920    26.1950 cd         1 YFK      -0.159200
     21 C27         11.3560    21.1330    24.9480 ca         1 YFK      -0.246000
     22 C30         12.9100    21.7200    27.2300 c3         1 YFK       0.146900
     23 N03          9.9980    11.7320    27.3260 ns         1 YFK      -0.495900
     24 N08          5.7650    12.3960    24.3580 ns         1 YFK      -0.514900
     25 N19         11.9660    14.6000    26.5900 ns         1 YFK      -0.471900
     26 N31         10.5610    17.1510    24.4140 na         1 YFK      -0.185700
     27 O11          6.5490    10.2560    24.1580 o          1 YFK      -0.562000
     28 O29         12.5860    20.3840    26.8980 os         1 YFK      -0.335100
     29 H041         8.2990    12.0640    28.4330 h1         1 YFK       0.084700
     30 H051         6.8760    10.4570    27.2520 hc         1 YFK       0.060200
     31 H052         8.2300     9.8860    26.2930 hc         1 YFK       0.060200
     32 H061         8.4680    12.1010    25.2270 hc         1 YFK       0.088700
     33 H091         6.6330    14.3130    24.4430 h1         1 YFK       0.045200
     34 H092         5.1420    14.1290    25.3700 h1         1 YFK       0.045200
     35 H101         6.2130    12.8900    27.0950 hc         1 YFK       0.063200
     36 H102         7.5950    13.8670    26.6000 hc         1 YFK       0.063200
     37 H131         8.0470    10.9280    30.5400 ha         1 YFK       0.166000
     38 H1           8.8150     9.2680    30.7750 ha         1 YFK       0.166000
     39 H141        11.9230    12.6160    26.0030 h1         1 YFK       0.077700
     40 H151        12.9560    13.3600    28.7760 hc         1 YFK       0.057700
     41 H152        12.8790    11.7390    28.1110 hc         1 YFK       0.057700
     42 H161        14.5960    14.0150    27.0330 hc         1 YFK       0.048700
     43 H172        15.6320    12.2500    25.5960 hc         1 YFK       0.035700
     44 H173        14.3960    11.1070    26.1170 hc         1 YFK       0.035700
     45 H171        13.9530    12.5220    25.1610 hc         1 YFK       0.035700
     46 H182        15.3640    13.0930    29.2140 hc         1 YFK       0.035700
     47 H181        15.3500    11.4660    28.5330 hc         1 YFK       0.035700
     48 H183        16.4760    12.6710    27.9130 hc         1 YFK       0.035700
     49 H251         9.6230    19.2180    22.6920 ha         1 YFK       0.120000
     50 H261        10.2150    21.5690    23.1860 ha         1 YFK       0.110000
     51 H2           9.5960     9.2760    28.4690 ha         1 YFK       0.168000
     52 H221        12.4250    17.4750    27.0900 ha         1 YFK       0.209000
     53 H271        11.5740    22.1800    25.1080 ha         1 YFK       0.116000
     54 H303        13.5030    21.6770    28.1400 h1         1 YFK       0.042033
     55 H301        13.4990    22.2030    26.4460 h1         1 YFK       0.042033
     56 H302        12.0160    22.3200    27.4190 h1         1 YFK       0.042033
     57 H031        10.4650    11.1460    26.6500 hn         1 YFK       0.314500
     58 H081         5.1140    12.3540    23.5880 hn         1 YFK       0.324500
     59 H191        12.5020    15.2010    27.1970 hn         1 YFK       0.331500
     60 H311        10.0360    16.6240    23.7340 hn         1 YFK       0.369000
     61 C13          8.6130    10.1050    30.1200 c2         1 YFK      -0.292000
     62 C02         10.5440    12.9190    27.6280 c          1 YFK       0.587100
     63 C20         11.1650    15.1350    25.6530 c          1 YFK       0.637300
     64 O01         10.0630    13.7200    28.4140 o          1 YFK      -0.603100
@<TRIPOS>BOND
     1     1     2 1   
     2     1    19 1   
     3     1    23 1   
     4     1    29 1   
     5     2     3 1   
     6     2    30 1   
     7     2    31 1   
     8     3     5 1   
     9     3    18 1   
    10     3    32 1   
    11     4     5 1   
    12     4    24 1   
    13     4    33 1   
    14     4    34 1   
    15     5    35 1   
    16     5    36 1   
    17     6     7 1   
    18     6    25 1   
    19     6    39 1   
    20     6    62 1   
    21     7     8 1   
    22     7    40 1   
    23     7    41 1   
    24     8     9 1   
    25     8    10 1   
    26     8    42 1   
    27     9    43 1   
    28     9    44 1   
    29     9    45 1   
    30    10    46 1   
    31    10    47 1   
    32    10    48 1   
    33    11    20 2   
    34    11    26 1   
    35    11    63 1   
    36    12    13 ar  
    37    12    16 ar  
    38    12    20 1   
    39    13    14 ar  
    40    13    26 1   
    41    14    15 ar  
    42    14    49 1   
    43    15    21 ar  
    44    15    50 1   
    45    16    21 ar  
    46    16    28 1   
    47    17    63 2   
    48    18    24 1   
    49    18    27 2   
    50    19    51 1   
    51    19    61 2   
    52    20    52 1   
    53    21    53 1   
    54    22    28 1   
    55    22    54 1   
    56    22    55 1   
    57    22    56 1   
    58    23    57 1   
    59    23    62 1   
    60    24    58 1   
    61    25    59 1   
    62    25    63 1   
    63    26    60 1   
    64    37    61 1   
    65    38    61 1   
    66    62    64 2   
@<TRIPOS>SUBSTRUCTURE
     1 YFK         1 TEMP              0 ****  ****    0 ROOT
