@<TRIPOS>MOLECULE
YFK
   64    66     1     0     0
SMALL
No Charge or Current Charge


@<TRIPOS>ATOM
      1 C04          8.7670    11.1280    28.1120 c3         1 YFK       0.140900
      2 C05          7.6900    10.6940    27.0860 c3         1 YFK      -0.070400
      3 C06          7.0870    11.8390    26.2250 c5         1 YFK      -0.154700
      4 C09          5.4130    13.5300    25.8790 c5         1 YFK       0.100000
      5 C10          6.2640    12.8970    27.0130 c5         1 YFK      -0.088400
      6 C14         11.6210    13.2570    26.5710 c3         1 YFK       0.035700
      7 C15         12.8510    12.8610    27.4380 c3         1 YFK      -0.085400
      8 C16         14.2300    12.8910    26.7200 c3         1 YFK      -0.059700
      9 C17         14.3360    11.8360    25.5930 c3         1 YFK      -0.091100
     10 C18         15.3830    12.7160    27.7340 c3         1 YFK      -0.091100
     11 C21         12.0730    16.6460    24.8340 cc         1 YFK      -0.159300
     12 C23         11.8080    18.9140    25.3120 ca         1 YFK      -0.145800
     13 C24         12.2580    18.7930    24.0290 ca         1 YFK      -0.004200
     14 C25         12.4880    19.9150    23.2260 ca         1 YFK      -0.170000
     15 C26         12.2390    21.1890    23.7820 ca         1 YFK      -0.041000
     16 C28         11.5480    20.1570    25.9030 ca         1 YFK       0.201100
     17 O32         12.4460    14.4270    24.0460 o          1 YFK      -0.632100
     18 C07          6.0830    11.3580    25.1680 c          1 YFK       0.562000
     19 C12          9.2040     9.9850    29.0030 c2         1 YFK      -0.243200
     20 C22         11.6930    17.5660    25.8130 cd         1 YFK      -0.159200
     21 C27         11.7720    21.3130    25.1140 ca         1 YFK      -0.246000
     22 C30         10.8110    21.4490    27.8660 c3         1 YFK       0.146900
     23 N03          9.9590    11.6480    27.4470 ns         1 YFK      -0.495900
     24 N08          5.1520    12.3540    25.0530 ns         1 YFK      -0.514900
     25 N19         11.6850    14.6840    26.1800 ns         1 YFK      -0.471900
     26 N31         12.4230    17.4510    23.7240 na         1 YFK      -0.185700
     27 O11          5.9420    10.2520    24.6720 o          1 YFK      -0.562000
     28 O29         11.0940    20.2040    27.2060 os         1 YFK      -0.335100
     29 H041         8.3370    11.9130    28.7500 h1         1 YFK       0.084700
     30 H051         6.8800    10.1910    27.6280 hc         1 YFK       0.060200
     31 H052         8.1300     9.9350    26.4270 hc         1 YFK       0.060200
     32 H061         7.8860    12.3580    25.6840 hc         1 YFK       0.088700
     33 H091         5.9810    14.2890    25.3250 h1         1 YFK       0.045200
     34 H092         4.4950    13.9950    26.2630 h1         1 YFK       0.045200
     35 H101         5.6180    12.4220    27.7610 hc         1 YFK       0.063200
     36 H102         6.8830    13.6340    27.5340 hc         1 YFK       0.063200
     37 H131        10.2350    11.0970    30.5000 ha         1 YFK       0.166000
     38 H1          10.2020     9.2550    30.7360 ha         1 YFK       0.166000
     39 H141        11.5900    12.6350    25.6680 h1         1 YFK       0.077700
     40 H151        12.8850    13.5310    28.3070 hc         1 YFK       0.057700
     41 H152        12.6970    11.8520    27.8410 hc         1 YFK       0.057700
     42 H161        14.3580    13.8800    26.2630 hc         1 YFK       0.048700
     43 H172        15.3220    11.8800    25.1150 hc         1 YFK       0.035700
     44 H173        14.1960    10.8230    25.9910 hc         1 YFK       0.035700
     45 H171        13.5850    12.0040    24.8130 hc         1 YFK       0.035700
     46 H182        15.3480    13.4990    28.5010 hc         1 YFK       0.035700
     47 H181        15.3200    11.7420    28.2350 hc         1 YFK       0.035700
     48 H183        16.3560    12.7820    27.2320 hc         1 YFK       0.035700
     49 H251        12.8470    19.8120    22.2040 ha         1 YFK       0.120000
     50 H261        12.4080    22.0810    23.1820 ha         1 YFK       0.110000
     51 H2           8.9010     8.9930    28.6620 ha         1 YFK       0.168000
     52 H221        11.3570    17.3230    26.8190 ha         1 YFK       0.209000
     53 H271        11.5900    22.3070    25.5110 ha         1 YFK       0.116000
     54 H303        10.4630    21.2660    28.8910 h1         1 YFK       0.042033
     55 H301        11.7100    22.0760    27.9190 h1         1 YFK       0.042033
     56 H302        10.0260    22.0020    27.3350 h1         1 YFK       0.042033
     57 H031        10.6060    10.9790    27.0500 hn         1 YFK       0.314500
     58 H081         4.3420    12.2050    24.4620 hn         1 YFK       0.324500
     59 H191        11.3650    15.3720    26.8490 hn         1 YFK       0.331500
     60 H311        12.7490    17.0960    22.8300 hn         1 YFK       0.369000
     61 C13          9.9150    10.1190    30.1360 c2         1 YFK      -0.292000
     62 C02         10.2940    12.9820    27.3330 c          1 YFK       0.587100
     63 C20         12.0970    15.1640    24.9570 c          1 YFK       0.637300
     64 O01          9.5930    13.8730    27.7980 o          1 YFK      -0.603100
@<TRIPOS>BOND
     1     1     2 1   
     2     1    19 1   
     3     1    23 1   
     4     1    29 1   
     5     2     3 1   
     6     2    30 1   
     7     2    31 1   
     8     3     5 1   
     9     3    18 1   
    10     3    32 1   
    11     4     5 1   
    12     4    24 1   
    13     4    33 1   
    14     4    34 1   
    15     5    35 1   
    16     5    36 1   
    17     6     7 1   
    18     6    25 1   
    19     6    39 1   
    20     6    62 1   
    21     7     8 1   
    22     7    40 1   
    23     7    41 1   
    24     8     9 1   
    25     8    10 1   
    26     8    42 1   
    27     9    43 1   
    28     9    44 1   
    29     9    45 1   
    30    10    46 1   
    31    10    47 1   
    32    10    48 1   
    33    11    20 2   
    34    11    26 1   
    35    11    63 1   
    36    12    13 ar  
    37    12    16 ar  
    38    12    20 1   
    39    13    14 ar  
    40    13    26 1   
    41    14    15 ar  
    42    14    49 1   
    43    15    21 ar  
    44    15    50 1   
    45    16    21 ar  
    46    16    28 1   
    47    17    63 2   
    48    18    24 1   
    49    18    27 2   
    50    19    51 1   
    51    19    61 2   
    52    20    52 1   
    53    21    53 1   
    54    22    28 1   
    55    22    54 1   
    56    22    55 1   
    57    22    56 1   
    58    23    57 1   
    59    23    62 1   
    60    24    58 1   
    61    25    59 1   
    62    25    63 1   
    63    26    60 1   
    64    37    61 1   
    65    38    61 1   
    66    62    64 2   
@<TRIPOS>SUBSTRUCTURE
     1 YFK         1 TEMP              0 ****  ****    0 ROOT
