@<TRIPOS>MOLECULE
YFN
   29    30     1     0     0
SMALL
abcg2


@<TRIPOS>ATOM
      1 C10         -3.4870    -6.5820   -10.5170 c          1 YFN       0.639100
      2 C13         -3.3530    -8.5390   -12.1800 cx         1 YFN      -0.092900
      3 C01         -3.5680    -3.8560    -8.9530 c3         1 YFN      -0.094100
      4 C02         -3.9780    -5.2390    -8.4510 c5         1 YFN       0.153400
      5 C03         -5.2080    -5.1590    -7.5220 c5         1 YFN      -0.080400
      6 C04         -5.3900    -6.5140    -6.8400 c5         1 YFN      -0.293400
      7 C08         -2.8780    -5.8820    -7.5890 c5         1 YFN      -0.297400
      8 C12         -4.1350    -7.3850   -11.5900 cx         1 YFN      -0.248700
      9 C14         -3.5530    -7.3010   -12.9850 cx         1 YFN      -0.092900
     10 N09         -4.3360    -6.1200    -9.5690 ns         1 YFN      -0.520900
     11 O11         -2.2730    -6.3690   -10.4930 o          1 YFN      -0.609100
     12 S05         -3.7060    -7.1210    -6.5700 s6         1 YFN       1.073000
     13 H132        -2.3710    -8.7150   -11.7640 hc         1 YFN       0.083700
     14 H131        -3.9180    -9.4240   -12.4400 hc         1 YFN       0.083700
     15 H013        -2.7060    -3.9270    -9.6130 hc         1 YFN       0.052700
     16 H012        -4.3980    -3.4110    -9.5050 hc         1 YFN       0.052700
     17 H011        -3.3170    -3.2070    -8.1130 hc         1 YFN       0.052700
     18 H031        -6.1000    -4.8780    -8.0840 hc         1 YFN       0.068700
     19 H032        -5.0240    -4.3840    -6.7770 hc         1 YFN       0.068700
     20 H042        -5.8830    -6.4620    -5.8730 h1         1 YFN       0.108700
     21 H041        -5.8890    -7.2430    -7.4740 h1         1 YFN       0.108700
     22 H082        -2.4520    -5.1500    -6.9060 h1         1 YFN       0.127700
     23 H081        -2.1000    -6.3670    -8.1690 h1         1 YFN       0.127700
     24 H121        -5.2070    -7.5070   -11.5120 hc         1 YFN       0.082700
     25 H142        -2.7040    -6.6430   -13.1110 hc         1 YFN       0.083700
     26 H141        -4.2540    -7.3220   -13.8070 hc         1 YFN       0.083700
     27 H091        -5.3200    -6.2790    -9.7220 hn         1 YFN       0.315500
     28 O06         -3.5480    -8.4450    -7.1490 o          1 YFN      -0.518000
     29 O07         -3.3280    -6.9500    -5.1760 o          1 YFN      -0.518000
@<TRIPOS>BOND
     1     1     8 1   
     2     1    10 1   
     3     1    11 2   
     4     2     8 1   
     5     2     9 1   
     6     2    13 1   
     7     2    14 1   
     8     3     4 1   
     9     3    15 1   
    10     3    16 1   
    11     3    17 1   
    12     4     5 1   
    13     4     7 1   
    14     4    10 1   
    15     5     6 1   
    16     5    18 1   
    17     5    19 1   
    18     6    12 1   
    19     6    20 1   
    20     6    21 1   
    21     7    12 1   
    22     7    22 1   
    23     7    23 1   
    24     8     9 1   
    25     8    24 1   
    26     9    25 1   
    27     9    26 1   
    28    10    27 1   
    29    12    28 2   
    30    12    29 2   
@<TRIPOS>SUBSTRUCTURE
     1 YFN         1 TEMP              0 ****  ****    0 ROOT
