@<TRIPOS>MOLECULE
YFN
   29    30     1     0     0
SMALL
No Charge or Current Charge


@<TRIPOS>ATOM
      1 C10         -3.5400    -5.9950   -10.7770 c          1 YFN       0.639100
      2 C13         -4.2920    -8.3650   -11.5440 cx         1 YFN      -0.092900
      3 C01         -3.9030    -3.5950    -8.8110 c3         1 YFN      -0.094100
      4 C02         -4.0130    -5.1050    -8.4930 c5         1 YFN       0.153400
      5 C03         -5.1510    -5.4150    -7.4570 c5         1 YFN      -0.080400
      6 C04         -5.0460    -6.9400    -7.1170 c5         1 YFN      -0.293400
      7 C08         -2.7410    -5.7210    -7.8350 c5         1 YFN      -0.297400
      8 C12         -4.0920    -6.8940   -11.8530 cx         1 YFN      -0.248700
      9 C14         -3.1820    -7.9360   -12.4730 cx         1 YFN      -0.092900
     10 N09         -4.3490    -5.9440    -9.6570 ns         1 YFN      -0.520900
     11 O11         -2.4880    -5.3870   -10.9150 o          1 YFN      -0.609100
     12 S05         -3.2340    -7.2950    -6.9980 s6         1 YFN       1.073000
     13 H132        -4.0090    -8.7320   -10.5590 hc         1 YFN       0.083700
     14 H131        -5.1540    -8.8650   -11.9810 hc         1 YFN       0.083700
     15 H013        -3.0420    -3.3680    -9.4490 hc         1 YFN       0.052700
     16 H012        -4.8040    -3.2340    -9.3210 hc         1 YFN       0.052700
     17 H011        -3.7850    -3.0090    -7.8920 hc         1 YFN       0.052700
     18 H031        -6.1430    -5.1550    -7.8450 hc         1 YFN       0.068700
     19 H032        -5.0150    -4.8110    -6.5510 hc         1 YFN       0.068700
     20 H042        -5.5030    -7.2100    -6.1580 h1         1 YFN       0.108700
     21 H041        -5.4380    -7.5930    -7.9040 h1         1 YFN       0.108700
     22 H082        -2.3500    -5.0840    -7.0340 h1         1 YFN       0.127700
     23 H081        -1.9290    -5.9560    -8.5280 h1         1 YFN       0.127700
     24 H121        -4.8180    -6.4250   -12.5110 hc         1 YFN       0.082700
     25 H142        -2.1600    -8.0110   -12.1060 hc         1 YFN       0.083700
     26 H141        -3.2980    -8.1470   -13.5330 hc         1 YFN       0.083700
     27 H091        -5.2050    -6.4800    -9.7150 hn         1 YFN       0.315500
     28 O06         -2.8960    -8.4470    -7.8430 o          1 YFN      -0.518000
     29 O07         -2.8050    -7.2630    -5.5940 o          1 YFN      -0.518000
@<TRIPOS>BOND
     1     1     8 1   
     2     1    10 1   
     3     1    11 2   
     4     2     8 1   
     5     2     9 1   
     6     2    13 1   
     7     2    14 1   
     8     3     4 1   
     9     3    15 1   
    10     3    16 1   
    11     3    17 1   
    12     4     5 1   
    13     4     7 1   
    14     4    10 1   
    15     5     6 1   
    16     5    18 1   
    17     5    19 1   
    18     6    12 1   
    19     6    20 1   
    20     6    21 1   
    21     7    12 1   
    22     7    22 1   
    23     7    23 1   
    24     8     9 1   
    25     8    24 1   
    26     9    25 1   
    27     9    26 1   
    28    10    27 1   
    29    12    28 2   
    30    12    29 2   
@<TRIPOS>SUBSTRUCTURE
     1 YFN         1 TEMP              0 ****  ****    0 ROOT
