@<TRIPOS>MOLECULE
YFR
   24    25     1     0     0
SMALL
abcg2


@<TRIPOS>ATOM
      1 C13         -2.7090     9.4770   -24.2760 ca         1 YFR      -0.254000
      2 C01         -1.2240     7.7940   -20.9260 c3         1 YFR      -0.110600
      3 C02         -0.4120     8.9110   -21.5580 c6         1 YFR       0.420000
      4 C03          0.1670     9.8790   -20.5560 c3         1 YFR      -0.110600
      5 C05          0.5080     7.7350   -23.4690 c          1 YFR       0.693700
      6 C07         -0.7510     8.0570   -24.1370 ca         1 YFR      -0.304600
      7 C08         -1.1140     7.4480   -25.3400 ca         1 YFR       0.049000
      8 C09         -2.2570     7.8400   -25.9980 ca         1 YFR      -0.098900
      9 C11         -3.0630     8.8700   -25.4790 ca         1 YFR       0.224100
     10 C14         -1.5670     9.0630   -23.6100 ca         1 YFR       0.226100
     11 O04          0.7140     8.3490   -22.2780 os         1 YFR      -0.469100
     12 O06          1.3840     7.0290   -23.9210 o          1 YFR      -0.485000
     13 O12         -4.1640     9.2280   -26.1620 oh         1 YFR      -0.504100
     14 O15         -1.2270     9.6810   -22.4530 os         1 YFR      -0.357100
     15 BR10        -2.7500     6.9940   -27.6350 br         1 YFR      -0.068100
     16 H131        -3.3290    10.2600   -23.8570 ha         1 YFR       0.137000
     17 H011        -1.6330     7.1220   -21.6800 hc         1 YFR       0.064033
     18 H013        -0.5880     7.2210   -20.2530 hc         1 YFR       0.064033
     19 H012        -2.0470     8.2270   -20.3570 hc         1 YFR       0.064033
     20 H031         0.7410    10.6480   -21.0710 hc         1 YFR       0.064033
     21 H032        -0.6410    10.3460   -19.9940 hc         1 YFR       0.064033
     22 H033         0.8150     9.3440   -19.8640 hc         1 YFR       0.064033
     23 H081        -0.4820     6.6720   -25.7480 ha         1 YFR       0.154000
     24 H121        -4.6250     9.9480   -25.7070 ho         1 YFR       0.476000
@<TRIPOS>BOND
     1     1     9 ar  
     2     1    10 ar  
     3     1    16 1   
     4     2     3 1   
     5     2    17 1   
     6     2    18 1   
     7     2    19 1   
     8     3     4 1   
     9     3    11 1   
    10     3    14 1   
    11     4    20 1   
    12     4    21 1   
    13     4    22 1   
    14     5     6 1   
    15     5    11 1   
    16     5    12 2   
    17     6     7 ar  
    18     6    10 ar  
    19     7     8 ar  
    20     7    23 1   
    21     8     9 ar  
    22     8    15 1   
    23     9    13 1   
    24    10    14 1   
    25    13    24 1   
@<TRIPOS>SUBSTRUCTURE
     1 YFR         1 TEMP              0 ****  ****    0 ROOT
