@<TRIPOS>MOLECULE
YFR
   24    25     1     0     0
SMALL
No Charge or Current Charge


@<TRIPOS>ATOM
      1 C13         -2.7260     9.4650   -24.3100 ca         1 YFR      -0.254000
      2 C01         -1.2310     7.8050   -20.8770 c3         1 YFR      -0.110600
      3 C02         -0.3880     8.9120   -21.5650 c6         1 YFR       0.420000
      4 C03          0.1870     9.8990   -20.5260 c3         1 YFR      -0.110600
      5 C05          0.5330     7.7200   -23.4740 c          1 YFR       0.693700
      6 C07         -0.7430     8.0630   -24.1770 ca         1 YFR      -0.304600
      7 C08         -1.0950     7.4480   -25.3950 ca         1 YFR       0.049000
      8 C09         -2.2700     7.8400   -26.0620 ca         1 YFR      -0.098900
      9 C11         -3.0850     8.8530   -25.5200 ca         1 YFR       0.224100
     10 C14         -1.5650     9.0580   -23.6430 ca         1 YFR       0.226100
     11 O04          0.7090     8.3040   -22.2520 os         1 YFR      -0.469100
     12 O06          1.3810     6.9940   -23.9680 o          1 YFR      -0.485000
     13 O12         -4.2210     9.2460   -26.1620 oh         1 YFR      -0.504100
     14 O15         -1.2270     9.6500   -22.4600 os         1 YFR      -0.357100
     15 Br10        -2.7290     6.9850   -27.7190 br         1 YFR      -0.068100
     16 H131        -3.3430    10.2460   -23.8770 ha         1 YFR       0.137000
     17 H011        -1.6340     7.0890   -21.6010 hc         1 YFR       0.064033
     18 H013        -0.6260     7.2440   -20.1560 hc         1 YFR       0.064033
     19 H012        -2.0770     8.2400   -20.3330 hc         1 YFR       0.064033
     20 H031         0.7790    10.6800   -21.0160 hc         1 YFR       0.064033
     21 H032        -0.6140    10.3890   -19.9610 hc         1 YFR       0.064033
     22 H033         0.8360     9.3830   -19.8100 hc         1 YFR       0.064033
     23 H081        -0.4620     6.6760   -25.8310 ha         1 YFR       0.154000
     24 H121        -4.6430     9.9550   -25.6330 ho         1 YFR       0.476000
@<TRIPOS>BOND
     1     1     9 ar  
     2     1    10 ar  
     3     1    16 1   
     4     2     3 1   
     5     2    17 1   
     6     2    18 1   
     7     2    19 1   
     8     3     4 1   
     9     3    11 1   
    10     3    14 1   
    11     4    20 1   
    12     4    21 1   
    13     4    22 1   
    14     5     6 1   
    15     5    11 1   
    16     5    12 2   
    17     6     7 ar  
    18     6    10 ar  
    19     7     8 ar  
    20     7    23 1   
    21     8     9 ar  
    22     8    15 1   
    23     9    13 1   
    24    10    14 1   
    25    13    24 1   
@<TRIPOS>SUBSTRUCTURE
     1 YFR         1 TEMP              0 ****  ****    0 ROOT
