@<TRIPOS>MOLECULE
YFS
   43    44     1     0     0
SMALL
abcg2


@<TRIPOS>ATOM
      1 C13         36.9610     6.4090    17.4610 ca         1 YFS      -0.187500
      2 C18         38.6700     3.7830    15.8760 cc         1 YFS       0.424900
      3 C16         37.3600     5.3560    16.5450 cc         1 YFS       0.183500
      4 C15         37.3960     7.7390    19.4420 ca         1 YFS      -0.211000
      5 C20         36.8960     4.8110    15.3870 cd         1 YFS       0.243900
      6 C22         33.8450     7.5130    15.9300 c3         1 YFS       0.146900
      7 C11         35.3940     8.1370    18.1660 ca         1 YFS      -0.232000
      8 C12         35.7700     7.1330    17.2790 ca         1 YFS       0.194100
      9 N1          33.7390    10.8460    22.3860 n8         1 YFS      -0.982200
     10 C2          34.8070    11.1970    21.4590 c3         1 YFS       0.082500
     11 C3          34.6930    12.6100    20.8780 c3         1 YFS      -0.106400
     12 C4          35.7870    13.0340    19.8950 c3         1 YFS      -0.059700
     13 C5          35.4530    14.4070    19.3200 c3         1 YFS      -0.088100
     14 C6          37.1710    13.0500    20.5370 c3         1 YFS      -0.088100
     15 C7          34.7730    10.1710    20.3330 c          1 YFS       0.621100
     16 O8          33.7790    10.0350    19.6430 o          1 YFS      -0.582100
     17 C10         36.2090     8.4470    19.2540 ca         1 YFS       0.034000
     18 C14         37.7550     6.7420    18.5590 ca         1 YFS      -0.023000
     19 O17         38.5040     4.6830    16.8490 os         1 YFS      -0.274000
     20 N19         37.7510     3.8100    14.9810 nd         1 YFS      -0.679000
     21 O21         35.0320     6.7970    16.2120 os         1 YFS      -0.343100
     22 H39         39.5350     3.1400    15.9340 h5         1 YFS       0.079100
     23 H38         38.0430     7.9700    20.2790 ha         1 YFS       0.115000
     24 H40         36.0190     5.0650    14.8190 h4         1 YFS       0.057100
     25 H41         33.4440     7.0870    15.0140 h1         1 YFS       0.047033
     26 H42         33.1040     7.4020    16.7240 h1         1 YFS       0.047033
     27 H43         34.0410     8.5760    15.7700 h1         1 YFS       0.047033
     28 H36         34.4760     8.6770    18.0170 ha         1 YFS       0.155000
     29 H25         33.7860    11.4630    23.1870 hn         1 YFS       0.406000
     30 H24         32.8430    11.0290    21.9480 hn         1 YFS       0.406000
     31 H23         35.7460    11.1100    22.0120 h1         1 YFS       0.062700
     32 H26         34.6800    13.3120    21.7190 hc         1 YFS       0.050700
     33 H27         33.7170    12.6950    20.3900 hc         1 YFS       0.050700
     34 H28         35.8060    12.3250    19.0590 hc         1 YFS       0.054700
     35 H31         34.4830    14.4050    18.8190 hc         1 YFS       0.034033
     36 H30         35.4160    15.1620    20.1090 hc         1 YFS       0.034033
     37 H29         36.2030    14.7250    18.5940 hc         1 YFS       0.034033
     38 H33         37.4880    12.0640    20.8770 hc         1 YFS       0.034033
     39 H34         37.9220    13.4020    19.8280 hc         1 YFS       0.034033
     40 H32         37.1890    13.7190    21.4010 hc         1 YFS       0.034033
     41 H35         36.6430     9.6270    20.8530 hn         1 YFS       0.154000
     42 H37         38.6830     6.2150    18.7350 ha         1 YFS       0.128000
     43 N9          35.9130     9.4490    20.1790 ns         1 YFS      -0.140000
@<TRIPOS>BOND
     1     1     3 1   
     2     1     8 ar  
     3     1    18 ar  
     4     2    19 1   
     5     2    20 2   
     6     2    22 1   
     7     3     5 2   
     8     3    19 1   
     9     4    17 ar  
    10     4    18 ar  
    11     4    23 1   
    12     5    20 1   
    13     5    24 1   
    14     6    21 1   
    15     6    25 1   
    16     6    26 1   
    17     6    27 1   
    18     7     8 ar  
    19     7    17 ar  
    20     7    28 1   
    21     8    21 1   
    22     9    10 1   
    23     9    29 1   
    24     9    30 1   
    25    10    11 1   
    26    10    15 1   
    27    10    31 1   
    28    11    12 1   
    29    11    32 1   
    30    11    33 1   
    31    12    13 1   
    32    12    14 1   
    33    12    34 1   
    34    13    35 1   
    35    13    36 1   
    36    13    37 1   
    37    14    38 1   
    38    14    39 1   
    39    14    40 1   
    40    15    16 2   
    41    15    43 1   
    42    17    43 1   
    43    18    42 1   
    44    41    43 1   
@<TRIPOS>SUBSTRUCTURE
     1 YFS         1 TEMP              0 ****  ****    0 ROOT
