@<TRIPOS>MOLECULE
YFS
   43    44     1     0     0
SMALL
No Charge or Current Charge


@<TRIPOS>ATOM
      1 C13         37.0210     6.3800    17.4800 ca         1 YFS      -0.187500
      2 C18         38.5480     3.6120    15.8690 cc         1 YFS       0.424900
      3 C16         37.5060     5.3240    16.5820 cc         1 YFS       0.183500
      4 C15         37.3770     7.7310    19.4820 ca         1 YFS      -0.211000
      5 C20         37.3600     5.2720    15.2200 cd         1 YFS       0.243900
      6 C22         33.7560     7.2940    15.8760 c3         1 YFS       0.146900
      7 C11         35.3810     8.0660    18.1520 ca         1 YFS      -0.232000
      8 C12         35.7980     7.0530    17.2590 ca         1 YFS       0.194100
      9 N1          33.7500    11.0780    22.6440 n8         1 YFS      -0.982200
     10 C2          34.7540    11.2340    21.5370 c3         1 YFS       0.082500
     11 C3          34.6790    12.6860    20.9870 c3         1 YFS      -0.106400
     12 C4          35.7170    13.0470    19.8840 c3         1 YFS      -0.059700
     13 C5          35.4580    14.4670    19.3320 c3         1 YFS      -0.088100
     14 C6          37.1810    12.9100    20.3680 c3         1 YFS      -0.088100
     15 C7          34.6540    10.1640    20.3850 c          1 YFS       0.621100
     16 O8          33.6230    10.0050    19.7340 o          1 YFS      -0.582100
     17 C10         36.1670     8.4080    19.2720 ca         1 YFS       0.034000
     18 C14         37.8000     6.7240    18.6010 ca         1 YFS      -0.023000
     19 O17         38.2780     4.3000    17.0180 os         1 YFS      -0.274000
     20 N19         38.0310     4.1500    14.7650 nd         1 YFS      -0.679000
     21 O21         35.0230     6.6820    16.1760 os         1 YFS      -0.343100
     22 H39         39.1520     2.7130    15.9400 h5         1 YFS       0.079100
     23 H38         38.0000     7.9820    20.3370 ha         1 YFS       0.115000
     24 H40         36.8450     5.9550    14.5550 h4         1 YFS       0.057100
     25 H41         33.3200     6.8410    14.9770 h1         1 YFS       0.047033
     26 H42         33.0490     7.1540    16.7030 h1         1 YFS       0.047033
     27 H43         33.8760     8.3690    15.6900 h1         1 YFS       0.047033
     28 H36         34.4510     8.5880    17.9720 ha         1 YFS       0.155000
     29 H25         33.8240    11.8740    23.2900 hn         1 YFS       0.406000
     30 H24         32.8020    11.1700    22.2560 hn         1 YFS       0.406000
     31 H23         35.7420    11.1080    22.0000 h1         1 YFS       0.062700
     32 H26         34.7970    13.3910    21.8200 hc         1 YFS       0.050700
     33 H27         33.6720    12.8520    20.5830 hc         1 YFS       0.050700
     34 H28         35.5820    12.3550    19.0420 hc         1 YFS       0.054700
     35 H31         34.4390    14.5510    18.9350 hc         1 YFS       0.034033
     36 H30         35.5830    15.2220    20.1180 hc         1 YFS       0.034033
     37 H29         36.1560    14.7010    18.5180 hc         1 YFS       0.034033
     38 H33         37.4180    11.8750    20.6370 hc         1 YFS       0.034033
     39 H34         37.8780    13.2100    19.5760 hc         1 YFS       0.034033
     40 H32         37.3640    13.5450    21.2430 hc         1 YFS       0.034033
     41 H35         36.5550     9.6480    20.8520 hn         1 YFS       0.154000
     42 H37         38.7440     6.2160    18.7890 ha         1 YFS       0.128000
     43 N9          35.8140     9.4200    20.2040 ns         1 YFS      -0.140000
@<TRIPOS>BOND
     1     1     3 1   
     2     1     8 ar  
     3     1    18 ar  
     4     2    19 1   
     5     2    20 2   
     6     2    22 1   
     7     3     5 2   
     8     3    19 1   
     9     4    17 ar  
    10     4    18 ar  
    11     4    23 1   
    12     5    20 1   
    13     5    24 1   
    14     6    21 1   
    15     6    25 1   
    16     6    26 1   
    17     6    27 1   
    18     7     8 ar  
    19     7    17 ar  
    20     7    28 1   
    21     8    21 1   
    22     9    10 1   
    23     9    29 1   
    24     9    30 1   
    25    10    11 1   
    26    10    15 1   
    27    10    31 1   
    28    11    12 1   
    29    11    32 1   
    30    11    33 1   
    31    12    13 1   
    32    12    14 1   
    33    12    34 1   
    34    13    35 1   
    35    13    36 1   
    36    13    37 1   
    37    14    38 1   
    38    14    39 1   
    39    14    40 1   
    40    15    16 2   
    41    15    43 1   
    42    17    43 1   
    43    18    42 1   
    44    41    43 1   
@<TRIPOS>SUBSTRUCTURE
     1 YFS         1 TEMP              0 ****  ****    0 ROOT
