@<TRIPOS>MOLECULE
YFV
   60    64     1     0     0
SMALL
abcg2


@<TRIPOS>ATOM
      1 C1          34.5740   -22.0230     1.5020 cc         1 YFV       0.443900
      2 C3          34.1700   -20.7710     3.3560 cd         1 YFV       0.132900
      3 C6          34.8170   -23.1410     2.3520 cc         1 YFV      -0.245000
      4 C7          35.1970   -24.4710     2.2040 cd         1 YFV      -0.114200
      5 C8          35.5860   -25.1900     0.9510 c3         1 YFV       0.224000
      6 C9          35.2190   -25.0150     3.4970 cd         1 YFV      -0.244000
      7 C10         34.8730   -24.0300     4.4020 cc         1 YFV      -0.174100
      8 C11         34.9680   -19.0560    -1.7420 ca         1 YFV      -0.101000
      9 C12         35.0850   -19.9600    -0.6970 ca         1 YFV      -0.090000
     10 C14         33.8320   -21.5570    -1.9810 ca         1 YFV      -0.137000
     11 C15         33.7370   -20.6560    -3.0370 ca         1 YFV      -0.123500
     12 C16         34.3050   -19.3890    -2.9120 ca         1 YFV      -0.078000
     13 C22         31.8630   -22.0250    -6.0910 cc         1 YFV       0.417700
     14 C23         31.0790   -22.8870    -7.0310 c3         1 YFV      -0.094000
     15 C24         32.3060   -25.5260    -0.8650 c6         1 YFV      -0.095400
     16 C25         33.3220   -25.6510     0.2560 c6         1 YFV       0.158300
     17 C27         35.1290   -25.7100    -1.3330 c6         1 YFV       0.158300
     18 N2          34.2810   -20.8470     2.0160 nd         1 YFV      -0.295000
     19 N4          34.3070   -21.7120     4.2350 nc         1 YFV      -0.300800
     20 N5          34.6360   -22.9050     3.7030 na         1 YFV       0.287900
     21 C13         34.5090   -21.2250    -0.8110 ca         1 YFV       0.297000
     22 N17         34.6310   -22.2120     0.1700 nu         1 YFV      -0.942900
     23 S18         32.2670   -22.5520    -4.4960 ss         1 YFV      -0.292800
     24 C19         33.0500   -21.0300    -4.2720 cc         1 YFV       0.470900
     25 N20         32.9710   -20.2740    -5.3210 nd         1 YFV      -0.325000
     26 N21         32.3030   -20.8360    -6.3440 nd         1 YFV      -0.319000
     27 N26         34.6080   -25.0750    -0.1250 n3         1 YFV      -0.736600
     28 C28         34.1640   -25.6090    -2.5020 c6         1 YFV      -0.095400
     29 C29         32.8010   -26.1890    -2.1480 c6         1 YFV       0.153500
     30 N30         31.8890   -26.0810    -3.2780 n8         1 YFV      -0.985200
     31 C31         31.7020   -24.2810    -7.1400 c3         1 YFV      -0.088100
     32 C32         30.9400   -22.2340    -8.4000 c3         1 YFV      -0.088100
     33 H33         33.9180   -19.7990     3.7620 h5         1 YFV       0.055100
     34 H34         35.7740   -26.2450     1.2030 h1         1 YFV       0.047200
     35 H35         36.5340   -24.7910     0.5750 h1         1 YFV       0.047200
     36 H36         35.4730   -26.0330     3.7480 ha         1 YFV       0.205000
     37 H37         34.7850   -24.0470     5.4760 h4         1 YFV       0.236000
     38 H38         35.4150   -18.0760    -1.6450 ha         1 YFV       0.121000
     39 H39         35.6280   -19.6820     0.1940 ha         1 YFV       0.138000
     40 H40         33.3740   -22.5370    -2.0460 ha         1 YFV       0.116000
     41 H41         34.2330   -18.6770    -3.7210 ha         1 YFV       0.140000
     42 H43         30.0790   -22.9990    -6.5980 hc         1 YFV       0.062700
     43 H44         32.1050   -24.4670    -1.0620 hc         1 YFV       0.052200
     44 H45         31.3630   -25.9770    -0.5450 hc         1 YFV       0.052200
     45 H46         33.4450   -26.7140     0.5260 h1         1 YFV       0.042950
     46 H47         32.9590   -25.1400     1.1480 h1         1 YFV       0.042950
     47 H48         35.3470   -26.7730    -1.1380 h1         1 YFV       0.042950
     48 H49         36.0780   -25.2330    -1.5890 h1         1 YFV       0.042950
     49 H42         34.5910   -23.2000    -0.1420 hn         1 YFV       0.559000
     50 H51         34.0520   -24.5620    -2.8000 hc         1 YFV       0.052200
     51 H50         34.5870   -26.1370    -3.3590 hc         1 YFV       0.052200
     52 H52         32.9370   -27.2580    -1.9460 h1         1 YFV       0.058700
     53 H53         31.0220   -26.5540    -3.0530 hn         1 YFV       0.392000
     54 H54         31.6350   -25.1080    -3.4050 hn         1 YFV       0.392000
     55 H57         31.7370   -24.8010    -6.1810 hc         1 YFV       0.045033
     56 H55         31.1120   -24.8950    -7.8200 hc         1 YFV       0.045033
     57 H56         32.7180   -24.2230    -7.5320 hc         1 YFV       0.045033
     58 H58         30.4610   -21.2570    -8.3400 hc         1 YFV       0.045033
     59 H59         31.9120   -22.1060    -8.8770 hc         1 YFV       0.045033
     60 H60         30.3300   -22.8680    -9.0430 hc         1 YFV       0.045033
@<TRIPOS>BOND
     1     1     3 1   
     2     1    18 2   
     3     1    22 1   
     4     2    18 1   
     5     2    19 2   
     6     2    33 1   
     7     3     4 2   
     8     3    20 1   
     9     4     5 1   
    10     4     6 1   
    11     5    27 1   
    12     5    34 1   
    13     5    35 1   
    14     6     7 2   
    15     6    36 1   
    16     7    20 1   
    17     7    37 1   
    18     8     9 ar  
    19     8    12 ar  
    20     8    38 1   
    21     9    21 ar  
    22     9    39 1   
    23    10    11 ar  
    24    10    21 ar  
    25    10    40 1   
    26    11    12 ar  
    27    11    24 1   
    28    12    41 1   
    29    13    14 1   
    30    13    23 1   
    31    13    26 2   
    32    14    31 1   
    33    14    32 1   
    34    14    42 1   
    35    15    16 1   
    36    15    29 1   
    37    15    43 1   
    38    15    44 1   
    39    16    27 1   
    40    16    45 1   
    41    16    46 1   
    42    17    27 1   
    43    17    28 1   
    44    17    47 1   
    45    17    48 1   
    46    19    20 1   
    47    21    22 1   
    48    22    49 1   
    49    23    24 1   
    50    24    25 2   
    51    25    26 1   
    52    28    29 1   
    53    28    50 1   
    54    28    51 1   
    55    29    30 1   
    56    29    52 1   
    57    30    53 1   
    58    30    54 1   
    59    31    55 1   
    60    31    56 1   
    61    31    57 1   
    62    32    58 1   
    63    32    59 1   
    64    32    60 1   
@<TRIPOS>SUBSTRUCTURE
     1 YFV         1 TEMP              0 ****  ****    0 ROOT
