@<TRIPOS>MOLECULE
YFV
   60    64     1     0     0
SMALL
No Charge or Current Charge


@<TRIPOS>ATOM
      1 C1          34.5120   -21.9150     1.6020 cc         1 YFV       0.443900
      2 C3          33.7730   -20.6270     3.3520 cd         1 YFV       0.132900
      3 C6          34.5700   -23.0130     2.4720 cc         1 YFV      -0.245000
      4 C7          34.9540   -24.3290     2.3320 cd         1 YFV      -0.114200
      5 C8          35.5090   -25.0450     1.1170 c3         1 YFV       0.224000
      6 C9          34.7620   -24.9210     3.6190 cd         1 YFV      -0.244000
      7 C10         34.2830   -23.9860     4.5160 cc         1 YFV      -0.174100
      8 C11         35.5370   -19.2800    -1.9540 ca         1 YFV      -0.101000
      9 C12         35.5320   -20.0970    -0.8130 ca         1 YFV      -0.090000
     10 C14         34.1310   -21.7040    -1.9710 ca         1 YFV      -0.137000
     11 C15         34.1120   -20.8910    -3.1290 ca         1 YFV      -0.123500
     12 C16         34.8350   -19.6750    -3.1060 ca         1 YFV      -0.078000
     13 C22         32.0210   -22.2970    -6.0250 cc         1 YFV       0.417700
     14 C23         31.0910   -23.1450    -6.8660 c3         1 YFV      -0.094000
     15 C24         32.3670   -25.4680    -1.0640 c6         1 YFV      -0.095400
     16 C25         33.2780   -25.5500     0.1820 c6         1 YFV       0.158300
     17 C27         35.2890   -25.6750    -1.2370 c6         1 YFV       0.158300
     18 N2          34.1260   -20.7160     1.9900 nd         1 YFV      -0.295000
     19 N4          33.7800   -21.6280     4.2610 nc         1 YFV      -0.300800
     20 N5          34.1930   -22.8350     3.7590 na         1 YFV       0.287900
     21 C13         34.8310   -21.3140    -0.8200 ca         1 YFV       0.297000
     22 N17         34.8300   -22.1430     0.2970 nu         1 YFV      -0.942900
     23 S18         32.3230   -22.6910    -4.3620 ss         1 YFV      -0.292800
     24 C19         33.3770   -21.3020    -4.3400 cc         1 YFV       0.470900
     25 N20         33.4430   -20.6460    -5.4930 nd         1 YFV      -0.325000
     26 N21         32.6590   -21.2260    -6.4740 nd         1 YFV      -0.319000
     27 N26         34.6360   -24.9900    -0.0830 n3         1 YFV      -0.736600
     28 C28         34.4300   -25.6190    -2.5210 c6         1 YFV      -0.095400
     29 C29         33.0220   -26.1940    -2.2580 c6         1 YFV       0.153500
     30 N30         32.1790   -26.0860    -3.4640 n8         1 YFV      -0.985200
     31 C31         31.8360   -23.8450    -8.0270 c3         1 YFV      -0.088100
     32 C32         29.8710   -22.3420    -7.3760 c3         1 YFV      -0.088100
     33 H33         33.4590   -19.6460     3.6860 h5         1 YFV       0.055100
     34 H34         35.6980   -26.0920     1.3930 h1         1 YFV       0.047200
     35 H35         36.4860   -24.5980     0.8850 h1         1 YFV       0.047200
     36 H36         34.9740   -25.9610     3.8630 ha         1 YFV       0.205000
     37 H37         34.0210   -24.0320     5.5670 h4         1 YFV       0.236000
     38 H38         36.0860   -18.3410    -1.9470 ha         1 YFV       0.121000
     39 H39         36.0810   -19.7930     0.0740 ha         1 YFV       0.138000
     40 H40         33.5890   -22.6420    -1.9460 ha         1 YFV       0.116000
     41 H41         34.8530   -19.0230    -3.9780 ha         1 YFV       0.140000
     42 H43         30.6960   -23.9400    -6.2220 hc         1 YFV       0.062700
     43 H44         32.1740   -24.4160    -1.3100 hc         1 YFV       0.052200
     44 H45         31.3940   -25.9210    -0.8320 hc         1 YFV       0.052200
     45 H46         33.3560   -26.6010     0.4990 h1         1 YFV       0.042950
     46 H47         32.7880   -25.0040     1.0020 h1         1 YFV       0.042950
     47 H48         35.4800   -26.7300    -0.9890 h1         1 YFV       0.042950
     48 H49         36.2650   -25.2140    -1.4490 h1         1 YFV       0.042950
     49 H42         34.7440   -23.1520     0.0900 hn         1 YFV       0.559000
     50 H51         34.3650   -24.5840    -2.8770 hc         1 YFV       0.052200
     51 H50         34.9260   -26.1910    -3.3160 hc         1 YFV       0.052200
     52 H52         33.1150   -27.2640    -2.0110 h1         1 YFV       0.058700
     53 H53         31.2190   -26.3500    -3.2200 hn         1 YFV       0.392000
     54 H54         32.1040   -25.0940    -3.7150 hn         1 YFV       0.392000
     55 H57         32.6690   -24.4480    -7.6430 hc         1 YFV       0.045033
     56 H55         31.1610   -24.5120    -8.5760 hc         1 YFV       0.045033
     57 H56         32.2420   -23.1110    -8.7330 hc         1 YFV       0.045033
     58 H58         29.3300   -21.8890    -6.5360 hc         1 YFV       0.045033
     59 H59         30.1840   -21.5390    -8.0550 hc         1 YFV       0.045033
     60 H60         29.1740   -22.9950    -7.9150 hc         1 YFV       0.045033
@<TRIPOS>BOND
     1     1     3 1   
     2     1    18 2   
     3     1    22 1   
     4     2    18 1   
     5     2    19 2   
     6     2    33 1   
     7     3     4 2   
     8     3    20 1   
     9     4     5 1   
    10     4     6 1   
    11     5    27 1   
    12     5    34 1   
    13     5    35 1   
    14     6     7 2   
    15     6    36 1   
    16     7    20 1   
    17     7    37 1   
    18     8     9 ar  
    19     8    12 ar  
    20     8    38 1   
    21     9    21 ar  
    22     9    39 1   
    23    10    11 ar  
    24    10    21 ar  
    25    10    40 1   
    26    11    12 ar  
    27    11    24 1   
    28    12    41 1   
    29    13    14 1   
    30    13    23 1   
    31    13    26 2   
    32    14    31 1   
    33    14    32 1   
    34    14    42 1   
    35    15    16 1   
    36    15    29 1   
    37    15    43 1   
    38    15    44 1   
    39    16    27 1   
    40    16    45 1   
    41    16    46 1   
    42    17    27 1   
    43    17    28 1   
    44    17    47 1   
    45    17    48 1   
    46    19    20 1   
    47    21    22 1   
    48    22    49 1   
    49    23    24 1   
    50    24    25 2   
    51    25    26 1   
    52    28    29 1   
    53    28    50 1   
    54    28    51 1   
    55    29    30 1   
    56    29    52 1   
    57    30    53 1   
    58    30    54 1   
    59    31    55 1   
    60    31    56 1   
    61    31    57 1   
    62    32    58 1   
    63    32    59 1   
    64    32    60 1   
@<TRIPOS>SUBSTRUCTURE
     1 YFV         1 TEMP              0 ****  ****    0 ROOT
