@<TRIPOS>MOLECULE
YFW
   34    35     1     0     0
SMALL
No Charge or Current Charge


@<TRIPOS>ATOM
      1 N          142.6120   134.0820   105.4880 na         1 YFW      -0.227700
      2 C          144.8400   133.7920    99.3970 c3         1 YFW       0.151900
      3 O          143.7240   134.3940   100.0790 os         1 YFW      -0.347100
      4 C1         143.5330   134.2580   101.4400 ca         1 YFW       0.105100
      5 N1         138.1350   137.7130   104.5190 n3         1 YFW      -0.713600
      6 C2         144.4250   133.5140   102.2650 ca         1 YFW      -0.165000
      7 C3         144.1890   133.4010   103.6530 ca         1 YFW      -0.095000
      8 C4         143.0600   134.0410   104.1800 ca         1 YFW      -0.074200
      9 C5         141.4260   134.8450   105.5670 cc         1 YFW      -0.154100
     10 C6         141.1740   135.2650   104.2630 cd         1 YFW      -0.141400
     11 C7         140.0100   136.1160   103.7990 c3         1 YFW      -0.003200
     12 C8         139.1880   136.7530   104.9470 c3         1 YFW       0.165800
     13 C9         137.0810   137.1090   103.6700 c3         1 YFW       0.150100
     14 C10        137.5600   138.4520   105.6660 c3         1 YFW       0.150100
     15 C11        142.2070   134.7550   103.3910 ca         1 YFW      -0.062800
     16 C12        142.4070   134.8880   102.0100 ca         1 YFW      -0.102000
     17 H1         143.0710   133.6280   106.2720 hn         1 YFW       0.349000
     18 H2         144.7990   134.0250    98.3250 h1         1 YFW       0.036033
     19 H3         145.7900   134.1730    99.7920 h1         1 YFW       0.036033
     20 H4         144.8230   132.7010    99.5090 h1         1 YFW       0.036033
     21 H6         145.2980   133.0200   101.8470 ha         1 YFW       0.114000
     22 H7         144.8630   132.8350   104.2920 ha         1 YFW       0.112000
     23 H8         140.8910   135.0130   106.4970 h4         1 YFW       0.209000
     24 H9         140.3830   136.9200   103.1540 hc         1 YFW       0.055200
     25 H10        139.3510   135.4990   103.1780 hc         1 YFW       0.055200
     26 H11        138.7350   135.9470   105.5420 h1         1 YFW       0.028200
     27 H12        139.8970   137.2750   105.6040 h1         1 YFW       0.028200
     28 H13        136.3300   137.8600   103.3910 h1         1 YFW       0.029700
     29 H14        137.5010   136.7060   102.7390 h1         1 YFW       0.029700
     30 H15        136.5690   136.2940   104.2000 h1         1 YFW       0.029700
     31 H16        138.3480   138.9640   106.2340 h1         1 YFW       0.029700
     32 H17        136.8460   139.2120   105.3210 h1         1 YFW       0.029700
     33 H18        137.0330   137.7690   106.3470 h1         1 YFW       0.029700
     34 H19        141.7180   135.4590   101.3950 ha         1 YFW       0.129000
@<TRIPOS>BOND
     1     1     8 1   
     2     1     9 1   
     3     1    17 1   
     4     2     3 1   
     5     2    18 1   
     6     2    19 1   
     7     2    20 1   
     8     3     4 1   
     9     4     6 ar  
    10     4    16 ar  
    11     5    12 1   
    12     5    13 1   
    13     5    14 1   
    14     6     7 ar  
    15     6    21 1   
    16     7     8 ar  
    17     7    22 1   
    18     8    15 ar  
    19     9    10 2   
    20     9    23 1   
    21    10    11 1   
    22    10    15 1   
    23    11    12 1   
    24    11    24 1   
    25    11    25 1   
    26    12    26 1   
    27    12    27 1   
    28    13    28 1   
    29    13    29 1   
    30    13    30 1   
    31    14    31 1   
    32    14    32 1   
    33    14    33 1   
    34    15    16 ar  
    35    16    34 1   
@<TRIPOS>SUBSTRUCTURE
     1 YFW         1 TEMP              0 ****  ****    0 ROOT
