@<TRIPOS>MOLECULE
YFW
   34    35     1     0     0
SMALL
abcg2


@<TRIPOS>ATOM
      1 N          142.6510   134.2060   105.4710 na         1 YFW      -0.227700
      2 C          144.7250   133.6810    99.4840 c3         1 YFW       0.151900
      3 O          143.6420   134.3400   100.1000 os         1 YFW      -0.347100
      4 C1         143.4930   134.2340   101.4450 ca         1 YFW       0.105100
      5 N1         138.1610   137.6790   104.5490 n3         1 YFW      -0.713600
      6 C2         144.3550   133.4780   102.2610 ca         1 YFW      -0.165000
      7 C3         144.1580   133.4050   103.6300 ca         1 YFW      -0.095000
      8 C4         143.0860   134.0950   104.1800 ca         1 YFW      -0.074200
      9 C5         141.5430   135.0060   105.5030 cc         1 YFW      -0.154100
     10 C6         141.2260   135.4330   104.2420 cd         1 YFW      -0.141400
     11 C7         140.1060   136.3220   103.8080 c3         1 YFW      -0.003200
     12 C8         139.1640   136.7070   104.9420 c3         1 YFW       0.165800
     13 C9         137.1960   137.1430   103.6130 c3         1 YFW       0.150100
     14 C10        137.4910   138.2210   105.7120 c3         1 YFW       0.150100
     15 C11        142.2120   134.8560   103.3750 ca         1 YFW      -0.062800
     16 C12        142.4220   134.9210   101.9960 ca         1 YFW      -0.102000
     17 H1         143.0750   133.7740   106.2740 hn         1 YFW       0.349000
     18 H2         144.6580   133.9020    98.4210 h1         1 YFW       0.036033
     19 H3         145.6910   134.0380    99.8530 h1         1 YFW       0.036033
     20 H4         144.6820   132.5960    99.6170 h1         1 YFW       0.036033
     21 H6         145.1900   132.9390   101.8350 ha         1 YFW       0.114000
     22 H7         144.8310   132.8210   104.2450 ha         1 YFW       0.112000
     23 H8         141.0540   135.2120   106.4420 h4         1 YFW       0.209000
     24 H9         140.5090   137.2390   103.3640 hc         1 YFW       0.055200
     25 H10        139.5520   135.8240   103.0070 hc         1 YFW       0.055200
     26 H11        138.7030   135.7950   105.3620 h1         1 YFW       0.028200
     27 H12        139.7550   137.1540   105.7460 h1         1 YFW       0.028200
     28 H13        136.4650   137.9110   103.3570 h1         1 YFW       0.029700
     29 H14        137.6770   136.8330   102.6850 h1         1 YFW       0.029700
     30 H15        136.6450   136.2750   104.0120 h1         1 YFW       0.029700
     31 H16        138.2170   138.6810   106.3850 h1         1 YFW       0.029700
     32 H17        136.7820   138.9940   105.4100 h1         1 YFW       0.029700
     33 H18        136.9330   137.4650   106.2870 h1         1 YFW       0.029700
     34 H19        141.7640   135.4990   101.3570 ha         1 YFW       0.129000
@<TRIPOS>BOND
     1     1     8 1   
     2     1     9 1   
     3     1    17 1   
     4     2     3 1   
     5     2    18 1   
     6     2    19 1   
     7     2    20 1   
     8     3     4 1   
     9     4     6 ar  
    10     4    16 ar  
    11     5    12 1   
    12     5    13 1   
    13     5    14 1   
    14     6     7 ar  
    15     6    21 1   
    16     7     8 ar  
    17     7    22 1   
    18     8    15 ar  
    19     9    10 2   
    20     9    23 1   
    21    10    11 1   
    22    10    15 1   
    23    11    12 1   
    24    11    24 1   
    25    11    25 1   
    26    12    26 1   
    27    12    27 1   
    28    13    28 1   
    29    13    29 1   
    30    13    30 1   
    31    14    31 1   
    32    14    32 1   
    33    14    33 1   
    34    15    16 ar  
    35    16    34 1   
@<TRIPOS>SUBSTRUCTURE
     1 YFW         1 TEMP              0 ****  ****    0 ROOT
