@<TRIPOS>MOLECULE
YFY
   50    52     1     0     0
SMALL
abcg2


@<TRIPOS>ATOM
      1 C18        -10.9900    32.9770   -15.9460 c3         1 YFY       0.147900
      2 C17        -14.6600    34.9190   -16.5770 cc         1 YFY       0.187500
      3 C15         -9.0060    35.5230   -20.0430 c          1 YFY       0.625100
      4 C20        -13.6330    36.0450   -18.5290 ca         1 YFY      -0.024000
      5 C21        -12.5690    36.2930   -19.3730 ca         1 YFY      -0.209000
      6 C22        -11.3440    35.6550   -19.1570 ca         1 YFY       0.033000
      7 C23        -11.2060    34.7680   -18.0870 ca         1 YFY      -0.229000
      8 C24        -12.2870    34.5210   -17.2460 ca         1 YFY       0.191100
      9 C12        -16.7120    35.2200   -15.9120 cc         1 YFY       0.430900
     10 C3          -6.8650    37.6650   -19.8850 c3         1 YFY      -0.062700
     11 C4          -6.8130    36.5450   -20.9460 c6         1 YFY      -0.067700
     12 C5          -5.8030    35.4370   -20.6130 c6         1 YFY      -0.073400
     13 C6          -5.8080    34.3320   -21.6690 c6         1 YFY      -0.108400
     14 C7          -7.2140    33.7800   -21.8760 c6         1 YFY       0.148800
     15 N8          -8.1970    34.8190   -22.2050 n7         1 YFY      -0.851400
     16 C9          -8.2100    35.9640   -21.2740 c6         1 YFY       0.098500
     17 C10        -14.9280    34.1410   -15.4890 cd         1 YFY       0.245900
     18 N11        -16.2420    34.3490   -15.0830 nd         1 YFY      -0.678000
     19 O13        -15.8210    35.6190   -16.8470 os         1 YFY      -0.289000
     20 O14         -8.5280    34.8280   -19.1540 o          1 YFY      -0.586100
     21 O19        -12.2160    33.6650   -16.2000 os         1 YFY      -0.351100
     22 C25        -13.5280    35.1610   -17.4480 ca         1 YFY      -0.188500
     23 H45        -11.1790    32.3570   -15.0730 h1         1 YFY       0.048033
     24 H46        -10.7130    32.3470   -16.7940 h1         1 YFY       0.048033
     25 H47        -10.1840    33.6810   -15.7310 h1         1 YFY       0.048033
     26 H48        -14.5750    36.5450   -18.7060 ha         1 YFY       0.128000
     27 H49        -12.6800    36.9790   -20.2030 ha         1 YFY       0.115000
     28 H50        -10.2620    34.2820   -17.9290 ha         1 YFY       0.157000
     29 H43        -17.6960    35.6580   -15.9520 h5         1 YFY       0.079100
     30 H26         -5.5590    39.1070   -18.9320 hc         1 YFY       0.034033
     31 H28         -4.7670    37.5680   -19.2590 hc         1 YFY       0.034033
     32 H27         -5.0830    38.6960   -20.5820 hc         1 YFY       0.034033
     33 H29         -7.8150    39.5810   -19.5290 hc         1 YFY       0.034033
     34 H30         -7.6150    39.1910   -21.2400 hc         1 YFY       0.034033
     35 H31         -8.8910    38.4200   -20.2920 hc         1 YFY       0.034033
     36 H32         -7.1940    37.2160   -18.9420 hc         1 YFY       0.061700
     37 H33         -6.4820    37.0100   -21.8850 hc         1 YFY       0.041700
     38 H34         -6.0410    35.0130   -19.6350 hc         1 YFY       0.055700
     39 H35         -4.8030    35.8660   -20.5440 hc         1 YFY       0.055700
     40 H36         -5.1300    33.5250   -21.3760 hc         1 YFY       0.043200
     41 H37         -5.4380    34.7330   -22.6200 hc         1 YFY       0.043200
     42 H38         -7.5450    33.2700   -20.9690 h1         1 YFY       0.063200
     43 H39         -7.2310    33.0460   -22.6840 h1         1 YFY       0.063200
     44 H40         -8.0010    35.1780   -23.1330 hn         1 YFY       0.410000
     45 H41         -8.7820    36.7400   -21.7800 h1         1 YFY       0.053700
     46 H42        -14.2760    33.4560   -14.9800 h4         1 YFY       0.058100
     47 N16        -10.3070    35.9380   -20.0560 ns         1 YFY      -0.142000
     48 C1          -5.4860    38.2880   -19.6500 c3         1 YFY      -0.088600
     49 C2          -7.8600    38.7710   -20.2600 c3         1 YFY      -0.088600
     50 H44        -10.5730    36.5310   -20.8270 hn         1 YFY       0.152000
@<TRIPOS>BOND
     1     1    21 1   
     2     1    23 1   
     3     1    24 1   
     4     1    25 1   
     5     2    17 2   
     6     2    19 1   
     7     2    22 1   
     8     3    16 1   
     9     3    20 2   
    10     3    47 1   
    11     4     5 ar  
    12     4    22 ar  
    13     4    26 1   
    14     5     6 ar  
    15     5    27 1   
    16     6     7 ar  
    17     6    47 1   
    18     7     8 ar  
    19     7    28 1   
    20     8    21 1   
    21     8    22 ar  
    22     9    18 2   
    23     9    19 1   
    24     9    29 1   
    25    10    11 1   
    26    10    36 1   
    27    10    48 1   
    28    10    49 1   
    29    11    12 1   
    30    11    16 1   
    31    11    37 1   
    32    12    13 1   
    33    12    38 1   
    34    12    39 1   
    35    13    14 1   
    36    13    40 1   
    37    13    41 1   
    38    14    15 1   
    39    14    42 1   
    40    14    43 1   
    41    15    16 1   
    42    15    44 1   
    43    16    45 1   
    44    17    18 1   
    45    17    46 1   
    46    30    48 1   
    47    31    48 1   
    48    32    48 1   
    49    33    49 1   
    50    34    49 1   
    51    35    49 1   
    52    47    50 1   
@<TRIPOS>SUBSTRUCTURE
     1 YFY         1 TEMP              0 ****  ****    0 ROOT
