@<TRIPOS>MOLECULE
YFY
   50    52     1     0     0
SMALL
No Charge or Current Charge


@<TRIPOS>ATOM
      1 C18        -12.8220    31.7270   -18.0730 c3         1 YFY       0.147900
      2 C17        -13.5810    35.1690   -15.6220 cc         1 YFY       0.187500
      3 C15         -9.0110    34.6640   -20.6190 c          1 YFY       0.625100
      4 C20        -11.7470    36.3440   -16.7950 ca         1 YFY      -0.024000
      5 C21        -10.7360    36.4030   -17.7650 ca         1 YFY      -0.209000
      6 C22        -10.4820    35.3090   -18.6070 ca         1 YFY       0.033000
      7 C23        -11.2510    34.1380   -18.4500 ca         1 YFY      -0.229000
      8 C24        -12.2720    34.0690   -17.4750 ca         1 YFY       0.191100
      9 C12        -14.6870    35.6440   -13.8660 cc         1 YFY       0.430900
     10 C3          -8.3340    37.7980   -21.3850 c3         1 YFY      -0.062700
     11 C4          -7.2530    36.6630   -21.1730 c6         1 YFY      -0.067700
     12 C5          -6.4910    36.7660   -19.8110 c6         1 YFY      -0.073400
     13 C6          -5.3870    35.6850   -19.7000 c6         1 YFY      -0.108400
     14 C7          -5.9320    34.2720   -20.0040 c6         1 YFY       0.148800
     15 N8          -6.5790    34.2500   -21.3370 n7         1 YFY      -0.851400
     16 C9          -7.7570    35.1870   -21.4360 c6         1 YFY       0.098500
     17 C10        -14.8010    34.5470   -15.7030 cd         1 YFY       0.245900
     18 N11        -15.5090    34.8520   -14.5530 nd         1 YFY      -0.678000
     19 O13        -13.4920    35.8940   -14.4810 os         1 YFY      -0.289000
     20 O14         -9.5540    33.6040   -20.9230 o          1 YFY      -0.586100
     21 O19        -13.0140    32.9180   -17.2880 os         1 YFY      -0.351100
     22 C25        -12.5300    35.1840   -16.6470 ca         1 YFY      -0.188500
     23 H45        -13.5220    30.9450   -17.7540 h1         1 YFY       0.048033
     24 H46        -13.0010    31.9280   -19.1370 h1         1 YFY       0.048033
     25 H47        -11.8030    31.3390   -17.9530 h1         1 YFY       0.048033
     26 H48        -11.9250    37.2110   -16.1610 ha         1 YFY       0.128000
     27 H49        -10.1480    37.3130   -17.8630 ha         1 YFY       0.115000
     28 H50        -11.0490    33.2770   -19.0740 ha         1 YFY       0.157000
     29 H43        -14.8720    36.1020   -12.9010 h5         1 YFY       0.079100
     30 H26         -8.5000    39.9810   -21.5390 hc         1 YFY       0.034033
     31 H28         -7.3410    39.4520   -20.3240 hc         1 YFY       0.034033
     32 H27         -6.9240    39.3440   -22.0500 hc         1 YFY       0.034033
     33 H29         -9.8280    38.4780   -22.8420 hc         1 YFY       0.034033
     34 H30         -8.4550    37.6190   -23.5690 hc         1 YFY       0.034033
     35 H31         -9.7280    36.7230   -22.7060 hc         1 YFY       0.034033
     36 H32         -9.0710    37.7610   -20.5750 hc         1 YFY       0.061700
     37 H33         -6.5050    36.8640   -21.9550 hc         1 YFY       0.041700
     38 H34         -7.1800    36.6780   -18.9610 hc         1 YFY       0.055700
     39 H35         -6.0120    37.7480   -19.7090 hc         1 YFY       0.055700
     40 H36         -4.9460    35.7030   -18.6940 hc         1 YFY       0.043200
     41 H37         -4.5720    35.9190   -20.3990 hc         1 YFY       0.043200
     42 H38         -6.6510    33.9730   -19.2260 h1         1 YFY       0.063200
     43 H39         -5.1030    33.5470   -19.9810 h1         1 YFY       0.063200
     44 H40         -5.8790    34.5300   -22.0350 hn         1 YFY       0.410000
     45 H41         -8.0960    35.1450   -22.4800 h1         1 YFY       0.053700
     46 H42        -15.2090    33.9320   -16.4960 h4         1 YFY       0.058100
     47 N16         -9.4400    35.4530   -19.5590 ns         1 YFY      -0.142000
     48 C1          -7.7350    39.2260   -21.3210 c3         1 YFY      -0.088600
     49 C2          -9.1310    37.6420   -22.7060 c3         1 YFY      -0.088600
     50 H44         -8.9010    36.2990   -19.4380 hn         1 YFY       0.152000
@<TRIPOS>BOND
     1     1    21 1   
     2     1    23 1   
     3     1    24 1   
     4     1    25 1   
     5     2    17 2   
     6     2    19 1   
     7     2    22 1   
     8     3    16 1   
     9     3    20 2   
    10     3    47 1   
    11     4     5 ar  
    12     4    22 ar  
    13     4    26 1   
    14     5     6 ar  
    15     5    27 1   
    16     6     7 ar  
    17     6    47 1   
    18     7     8 ar  
    19     7    28 1   
    20     8    21 1   
    21     8    22 ar  
    22     9    18 2   
    23     9    19 1   
    24     9    29 1   
    25    10    11 1   
    26    10    36 1   
    27    10    48 1   
    28    10    49 1   
    29    11    12 1   
    30    11    16 1   
    31    11    37 1   
    32    12    13 1   
    33    12    38 1   
    34    12    39 1   
    35    13    14 1   
    36    13    40 1   
    37    13    41 1   
    38    14    15 1   
    39    14    42 1   
    40    14    43 1   
    41    15    16 1   
    42    15    44 1   
    43    16    45 1   
    44    17    18 1   
    45    17    46 1   
    46    30    48 1   
    47    31    48 1   
    48    32    48 1   
    49    33    49 1   
    50    34    49 1   
    51    35    49 1   
    52    47    50 1   
@<TRIPOS>SUBSTRUCTURE
     1 YFY         1 TEMP              0 ****  ****    0 ROOT
