@<TRIPOS>MOLECULE
YG0
   23    24     1     0     0
SMALL
No Charge or Current Charge


@<TRIPOS>ATOM
      1 C4         -17.4240     0.4140   -57.0480 ca         1 YG0      -0.138000
      2 C5         -17.1600     1.6270   -56.3910 ca         1 YG0      -0.083000
      3 C6         -17.2790     1.7140   -54.9930 ca         1 YG0      -0.150500
      4 C7         -17.9080     1.1190   -50.4580 cx         1 YG0      -0.252700
      5 C8         -16.9870     0.0690   -49.8660 cx         1 YG0      -0.093400
      6 O          -17.3690     2.7610   -52.1150 o          1 YG0      -0.591100
      7 C          -17.6580     1.5950   -51.8720 c          1 YG0       0.638100
      8 C9         -16.9180     1.4940   -49.3700 cx         1 YG0      -0.093400
      9 C1         -17.6650     0.5830   -54.2370 ca         1 YG0      -0.020000
     10 C3         -17.8060    -0.7140   -56.3060 ca         1 YG0      -0.083000
     11 C2         -17.9250    -0.6270   -54.9080 ca         1 YG0      -0.150500
     12 H3         -17.3310     0.3490   -58.1300 ha         1 YG0       0.114000
     13 H4         -16.8630     2.5010   -56.9660 ha         1 YG0       0.113000
     14 H5         -17.0660     2.6660   -54.5190 ha         1 YG0       0.128000
     15 H6         -18.9550     1.0740   -50.1710 hc         1 YG0       0.083700
     16 H8         -17.4240    -0.6760   -49.2040 hc         1 YG0       0.083700
     17 H7         -16.1570    -0.2940   -50.4680 hc         1 YG0       0.083700
     18 H10        -17.3100     1.7040   -48.3770 hc         1 YG0       0.083700
     19 H9         -16.0460     2.0830   -49.6460 hc         1 YG0       0.083700
     20 H          -18.0570    -0.3040   -52.4300 hn         1 YG0       0.148000
     21 H2         -18.0100    -1.6550   -56.8120 ha         1 YG0       0.113000
     22 H1         -18.2220    -1.5090   -54.3440 ha         1 YG0       0.128000
     23 N          -17.8050     0.5940   -52.8220 ns         1 YG0      -0.145000
@<TRIPOS>BOND
     1     1     2 ar  
     2     1    10 ar  
     3     1    12 1   
     4     2     3 ar  
     5     2    13 1   
     6     3     9 ar  
     7     3    14 1   
     8     4     5 1   
     9     4     7 1   
    10     4     8 1   
    11     4    15 1   
    12     5     8 1   
    13     5    16 1   
    14     5    17 1   
    15     6     7 2   
    16     7    23 1   
    17     8    18 1   
    18     8    19 1   
    19     9    11 ar  
    20     9    23 1   
    21    10    11 ar  
    22    10    21 1   
    23    11    22 1   
    24    20    23 1   
@<TRIPOS>SUBSTRUCTURE
     1 YG0         1 TEMP              0 ****  ****    0 ROOT
