@<TRIPOS>MOLECULE
YG0
   23    24     1     0     0
SMALL
abcg2


@<TRIPOS>ATOM
      1 C4         -17.6060     0.5660   -57.0900 ca         1 YG0      -0.138000
      2 C5         -16.8670     1.4620   -56.3260 ca         1 YG0      -0.083000
      3 C6         -16.8970     1.4190   -54.9350 ca         1 YG0      -0.150500
      4 C7         -17.5110     0.5900   -50.5370 cx         1 YG0      -0.252700
      5 C8         -16.4420     0.7360   -49.4730 cx         1 YG0      -0.093400
      6 O          -16.4860     2.0510   -52.1200 o          1 YG0      -0.591100
      7 C          -17.1970     1.0710   -51.9090 c          1 YG0       0.638100
      8 C9         -17.6410     1.6190   -49.4330 cx         1 YG0      -0.093400
      9 C1         -17.6810     0.4560   -54.2920 ca         1 YG0      -0.020000
     10 C3         -18.3870    -0.3910   -56.4470 ca         1 YG0      -0.083000
     11 C2         -18.4260    -0.4470   -55.0620 ca         1 YG0      -0.150500
     12 H3         -17.5740     0.6100   -58.1710 ha         1 YG0       0.114000
     13 H4         -16.2550     2.2110   -56.8130 ha         1 YG0       0.113000
     14 H5         -16.3220     2.1170   -54.3520 ha         1 YG0       0.128000
     15 H6         -18.1500    -0.2810   -50.4700 hc         1 YG0       0.083700
     16 H8         -16.3640    -0.0680   -48.7540 hc         1 YG0       0.083700
     17 H7         -15.5060     1.1720   -49.7930 hc         1 YG0       0.083700
     18 H10        -18.3990     1.4330   -48.6860 hc         1 YG0       0.083700
     19 H9         -17.5140     2.6520   -49.7250 hc         1 YG0       0.083700
     20 H          -18.3430    -0.4460   -52.5820 hn         1 YG0       0.148000
     21 H2         -18.9710    -1.0970   -57.0230 ha         1 YG0       0.113000
     22 H1         -19.0350    -1.1930   -54.5640 ha         1 YG0       0.128000
     23 N          -17.7700     0.3230   -52.8970 ns         1 YG0      -0.145000
@<TRIPOS>BOND
     1     1     2 ar  
     2     1    10 ar  
     3     1    12 1   
     4     2     3 ar  
     5     2    13 1   
     6     3     9 ar  
     7     3    14 1   
     8     4     5 1   
     9     4     7 1   
    10     4     8 1   
    11     4    15 1   
    12     5     8 1   
    13     5    16 1   
    14     5    17 1   
    15     6     7 2   
    16     7    23 1   
    17     8    18 1   
    18     8    19 1   
    19     9    11 ar  
    20     9    23 1   
    21    10    11 ar  
    22    10    21 1   
    23    11    22 1   
    24    20    23 1   
@<TRIPOS>SUBSTRUCTURE
     1 YG0         1 TEMP              0 ****  ****    0 ROOT
