@<TRIPOS>MOLECULE
YG1
   53    56     1     0     0
SMALL
abcg2


@<TRIPOS>ATOM
      1 C02        189.0840   145.2390   167.9290 c3         1 YG1       0.160600
      2 C03        188.8600   144.5910   169.2790 c3         1 YG1      -0.077400
      3 C04        187.5290   144.9880   169.9290 c3         1 YG1       0.015700
      4 C05        187.3380   144.3080   171.2020 c1         1 YG1      -0.113100
      5 C06        187.2390   143.6730   172.2220 cg         1 YG1      -0.117000
      6 C07        186.3540   142.9310   175.7460 ca         1 YG1      -0.108000
      7 C08        186.4350   143.5490   174.5110 ca         1 YG1      -0.099000
      8 C09        187.1320   142.9590   173.4510 ca         1 YG1       0.063000
      9 C10        187.7470   141.7060   173.6430 ca         1 YG1      -0.091500
     10 C11        187.6610   141.1060   174.8990 ca         1 YG1      -0.101000
     11 C12        186.9770   141.7060   175.9430 ca         1 YG1      -0.110000
     12 C13        190.1300   140.7750   168.5470 ca         1 YG1      -0.222300
     13 C14        191.4640   140.7030   168.9650 ca         1 YG1       0.194100
     14 C15        192.4670   141.3800   168.2670 ca         1 YG1      -0.178000
     15 C16        192.1700   142.1390   167.1440 ca         1 YG1       0.022000
     16 C17        190.8440   142.2070   166.7090 ca         1 YG1      -0.207000
     17 C18        189.8650   141.5390   167.4100 ca         1 YG1      -0.029000
     18 C20        194.4470   143.0130   166.6310 c          1 YG1       0.608100
     19 C22        195.1430   143.9100   165.6380 c3         1 YG1      -0.182100
     20 C23        188.9570   140.1200   169.2340 c3         1 YG1       0.139900
     21 C25        189.9970   139.8790   171.4500 cc         1 YG1      -0.205300
     22 C26        191.1400   139.1690   170.8230 c3         1 YG1       0.236900
     23 C29        188.4970   141.0240   172.5840 cd         1 YG1       0.291500
     24 C30        189.7090   140.3150   172.7210 cd         1 YG1      -0.179000
     25 N24        188.9950   140.3150   170.6650 na         1 YG1       0.145800
     26 N28        188.0850   141.0110   171.3230 nc         1 YG1      -0.480800
     27 O01        188.1010   144.7840   167.0240 oh         1 YG1      -0.665000
     28 O21        195.0430   142.4980   167.5590 o          1 YG1      -0.570100
     29 O27        191.9450   140.0410   170.0450 os         1 YG1      -0.341100
     30 H021       190.0940   144.9830   167.5820 h1         1 YG1       0.016700
     31 H022       189.0530   146.3320   168.0400 h1         1 YG1       0.016700
     32 H031       188.9110   143.5040   169.1800 hc         1 YG1       0.059700
     33 H032       189.6820   144.8820   169.9370 hc         1 YG1       0.059700
     34 H041       187.4980   146.0720   170.0780 hc         1 YG1       0.059700
     35 H042       186.6970   144.7460   169.2630 hc         1 YG1       0.059700
     36 H071       185.8110   143.4060   176.5530 ha         1 YG1       0.114000
     37 H081       185.9650   144.5110   174.3560 ha         1 YG1       0.118000
     38 H111       188.1290   140.1410   175.0540 ha         1 YG1       0.115000
     39 H121       186.9240   141.2140   176.9060 ha         1 YG1       0.113000
     40 H151       193.4790   141.3000   168.6320 ha         1 YG1       0.165000
     41 H171       190.5780   142.7970   165.8400 ha         1 YG1       0.114000
     42 H181       188.8390   141.6240   167.0740 ha         1 YG1       0.121000
     43 H222       196.0790   143.4490   165.3290 hc         1 YG1       0.064033
     44 H223       194.5520   144.1300   164.7510 hc         1 YG1       0.064033
     45 H221       195.3890   144.8550   166.1240 hc         1 YG1       0.064033
     46 H231       188.0300   140.5610   168.8750 h1         1 YG1       0.075200
     47 H232       188.9040   139.0490   169.0230 h1         1 YG1       0.075200
     48 H262       190.7980   138.3220   170.2190 h1         1 YG1       0.069200
     49 H261       191.7990   138.7730   171.5940 h1         1 YG1       0.069200
     50 H301       190.2950   140.1700   173.6140 ha         1 YG1       0.147000
     51 H191       192.7390   143.3390   165.6050 hn         1 YG1       0.150000
     52 H011       188.1970   145.2720   166.2020 ho         1 YG1       0.437000
     53 N19        193.1140   142.8540   166.4050 ns         1 YG1      -0.149000
@<TRIPOS>BOND
     1     1     2 1   
     2     1    27 1   
     3     1    30 1   
     4     1    31 1   
     5     2     3 1   
     6     2    32 1   
     7     2    33 1   
     8     3     4 1   
     9     3    34 1   
    10     3    35 1   
    11     4     5 3   
    12     5     8 1   
    13     6     7 ar  
    14     6    11 ar  
    15     6    36 1   
    16     7     8 ar  
    17     7    37 1   
    18     8     9 ar  
    19     9    10 ar  
    20     9    23 1   
    21    10    11 ar  
    22    10    38 1   
    23    11    39 1   
    24    12    13 ar  
    25    12    17 ar  
    26    12    20 1   
    27    13    14 ar  
    28    13    29 1   
    29    14    15 ar  
    30    14    40 1   
    31    15    16 ar  
    32    15    53 1   
    33    16    17 ar  
    34    16    41 1   
    35    17    42 1   
    36    18    19 1   
    37    18    28 2   
    38    18    53 1   
    39    19    43 1   
    40    19    44 1   
    41    19    45 1   
    42    20    25 1   
    43    20    46 1   
    44    20    47 1   
    45    21    22 1   
    46    21    24 2   
    47    21    25 1   
    48    22    29 1   
    49    22    48 1   
    50    22    49 1   
    51    23    24 1   
    52    23    26 2   
    53    24    50 1   
    54    25    26 1   
    55    27    52 1   
    56    51    53 1   
@<TRIPOS>SUBSTRUCTURE
     1 YG1         1 TEMP              0 ****  ****    0 ROOT
