@<TRIPOS>MOLECULE
YG1
   53    56     1     0     0
SMALL
No Charge or Current Charge


@<TRIPOS>ATOM
      1 C02        189.7440   145.0130   168.1910 c3         1 YG1       0.160600
      2 C03        189.1170   144.2590   169.3820 c3         1 YG1      -0.077400
      3 C04        188.3020   145.1680   170.3340 c3         1 YG1       0.015700
      4 C05        187.7910   144.4350   171.4980 c1         1 YG1      -0.113100
      5 C06        187.4090   143.7760   172.4440 cg         1 YG1      -0.117000
      6 C07        185.7850   142.7250   175.6520 ca         1 YG1      -0.108000
      7 C08        186.1650   143.4970   174.5420 ca         1 YG1      -0.099000
      8 C09        186.9960   142.9500   173.5460 ca         1 YG1       0.063000
      9 C10        187.4500   141.6120   173.6620 ca         1 YG1      -0.091500
     10 C11        187.0740   140.8510   174.7870 ca         1 YG1      -0.101000
     11 C12        186.2430   141.4030   175.7760 ca         1 YG1      -0.110000
     12 C13        190.1660   140.6900   168.5670 ca         1 YG1      -0.222300
     13 C14        191.4800   140.9790   169.0470 ca         1 YG1       0.194100
     14 C15        192.3710   141.6940   168.2290 ca         1 YG1      -0.178000
     15 C16        192.0120   142.1110   166.9330 ca         1 YG1       0.022000
     16 C17        190.7310   141.7970   166.4590 ca         1 YG1      -0.207000
     17 C18        189.8190   141.1020   167.2650 ca         1 YG1      -0.029000
     18 C20        194.1490   143.3560   166.2360 c          1 YG1       0.608100
     19 C22        194.7060   144.0520   164.9970 c3         1 YG1      -0.182100
     20 C23        189.0710   139.9680   169.3640 c3         1 YG1       0.139900
     21 C25        190.1080   140.1330   171.6380 cc         1 YG1      -0.205300
     22 C26        191.4340   139.6310   171.1660 c3         1 YG1       0.236900
     23 C29        188.3170   141.0030   172.6420 cd         1 YG1       0.291500
     24 C30        189.6470   140.5750   172.8440 cd         1 YG1      -0.179000
     25 N24        189.0420   140.3070   170.7870 na         1 YG1       0.145800
     26 N28        187.9190   140.8330   171.3920 nc         1 YG1      -0.480800
     27 O01        188.7220   145.5460   167.3420 oh         1 YG1      -0.665000
     28 O21        194.7960   143.2910   167.2740 o          1 YG1      -0.570100
     29 O27        191.9940   140.6210   170.2870 os         1 YG1      -0.341100
     30 H021       190.3790   144.3200   167.6250 h1         1 YG1       0.016700
     31 H022       190.3870   145.8190   168.5690 h1         1 YG1       0.016700
     32 H031       188.4770   143.4530   169.0020 hc         1 YG1       0.059700
     33 H032       189.9250   143.7770   169.9460 hc         1 YG1       0.059700
     34 H041       188.9320   145.9950   170.6850 hc         1 YG1       0.059700
     35 H042       187.4560   145.6130   169.7960 hc         1 YG1       0.059700
     36 H071       185.1430   143.1530   176.4190 ha         1 YG1       0.114000
     37 H081       185.8180   144.5250   174.4580 ha         1 YG1       0.118000
     38 H111       187.4220   139.8250   174.8890 ha         1 YG1       0.115000
     39 H121       185.9530   140.8060   176.6380 ha         1 YG1       0.113000
     40 H151       193.3570   141.9020   168.6280 ha         1 YG1       0.165000
     41 H171       190.4300   142.1050   165.4600 ha         1 YG1       0.114000
     42 H181       188.8270   140.8890   166.8690 ha         1 YG1       0.121000
     43 H222       195.7090   144.4610   165.1580 hc         1 YG1       0.064033
     44 H223       194.6830   143.3520   164.1540 hc         1 YG1       0.064033
     45 H221       193.9990   144.8260   164.6750 hc         1 YG1       0.064033
     46 H231       188.0860   140.1990   168.9390 h1         1 YG1       0.075200
     47 H232       189.2160   138.8840   169.2750 h1         1 YG1       0.075200
     48 H262       191.3180   138.6680   170.6520 h1         1 YG1       0.069200
     49 H261       192.0910   139.4750   172.0310 h1         1 YG1       0.069200
     50 H301       190.2020   140.6280   173.7740 ha         1 YG1       0.147000
     51 H191       192.4880   142.9860   165.1430 hn         1 YG1       0.150000
     52 H011       189.1760   145.9970   166.5960 ho         1 YG1       0.437000
     53 N19        192.8760   142.8300   166.0640 ns         1 YG1      -0.149000
@<TRIPOS>BOND
     1     1     2 1   
     2     1    27 1   
     3     1    30 1   
     4     1    31 1   
     5     2     3 1   
     6     2    32 1   
     7     2    33 1   
     8     3     4 1   
     9     3    34 1   
    10     3    35 1   
    11     4     5 3   
    12     5     8 1   
    13     6     7 ar  
    14     6    11 ar  
    15     6    36 1   
    16     7     8 ar  
    17     7    37 1   
    18     8     9 ar  
    19     9    10 ar  
    20     9    23 1   
    21    10    11 ar  
    22    10    38 1   
    23    11    39 1   
    24    12    13 ar  
    25    12    17 ar  
    26    12    20 1   
    27    13    14 ar  
    28    13    29 1   
    29    14    15 ar  
    30    14    40 1   
    31    15    16 ar  
    32    15    53 1   
    33    16    17 ar  
    34    16    41 1   
    35    17    42 1   
    36    18    19 1   
    37    18    28 2   
    38    18    53 1   
    39    19    43 1   
    40    19    44 1   
    41    19    45 1   
    42    20    25 1   
    43    20    46 1   
    44    20    47 1   
    45    21    22 1   
    46    21    24 2   
    47    21    25 1   
    48    22    29 1   
    49    22    48 1   
    50    22    49 1   
    51    23    24 1   
    52    23    26 2   
    53    24    50 1   
    54    25    26 1   
    55    27    52 1   
    56    51    53 1   
@<TRIPOS>SUBSTRUCTURE
     1 YG1         1 TEMP              0 ****  ****    0 ROOT
