@<TRIPOS>MOLECULE
YG3
   47    49     1     0     0
SMALL
abcg2


@<TRIPOS>ATOM
      1 C4          -6.6190   -38.6820   -22.5940 c3         1 YG3       0.197600
      2 C5          -6.4450   -37.5460   -21.6010 c5         1 YG3       0.113300
      3 C6          -5.8810   -37.6250   -19.3430 c5         1 YG3       0.285300
      4 C11         -4.4840   -39.7640   -19.3090 ca         1 YG3       0.142500
      5 C7          -5.1140   -38.9540   -17.3790 cc         1 YG3       0.403700
      6 C8          -4.0290   -40.5340   -18.2490 ca         1 YG3      -0.106600
      7 C9          -3.2720   -41.6750   -18.5760 ca         1 YG3       0.454900
      8 C10         -3.5440   -41.1030   -20.7840 ca         1 YG3       0.192900
      9 C12         -4.9710   -36.5760   -20.0070 c5         1 YG3       0.131300
     10 C13         -5.0170   -36.9890   -21.4780 c5         1 YG3       0.152300
     11 N1          -5.7970   -37.2030   -28.6660 n8         1 YG3      -1.032200
     12 N2          -5.7160   -38.1360   -26.2670 ns         1 YG3      -0.601300
     13 C3          -6.8050   -38.6230   -26.9530 c          1 YG3       0.636100
     14 N3          -5.1840   -38.7400   -18.7300 na         1 YG3      -0.306300
     15 C1          -8.1680   -36.9280   -28.1170 c3         1 YG3      -0.098100
     16 C2          -7.0080   -37.9070   -28.2840 c3         1 YG3       0.084500
     17 N4          -4.4330   -40.0090   -17.0490 nd         1 YG3      -0.544100
     18 N5          -2.7840   -42.5020   -17.6510 nv         1 YG3      -1.062900
     19 N6          -3.0470   -41.9300   -19.8690 nb         1 YG3      -0.299000
     20 N7          -4.2650   -40.0120   -20.5990 nb         1 YG3      -0.247000
     21 O1          -7.5380   -39.4830   -26.5310 o          1 YG3      -0.537100
     22 O2          -4.0250   -37.8870   -24.4860 o          1 YG3      -0.564000
     23 O3          -5.1290   -40.1010   -24.7500 o          1 YG3      -0.564000
     24 O4          -6.4350   -38.1610   -23.9320 os         1 YG3      -0.585700
     25 O5          -6.7610   -38.0860   -20.3250 os         1 YG3      -0.433000
     26 O6          -5.5420   -35.3010   -19.8970 oh         1 YG3      -0.679000
     27 O7          -4.7400   -35.9120   -22.3220 oh         1 YG3      -0.690000
     28 S1          -5.2050   -38.6640   -24.8030 s6         1 YG3       1.453500
     29 H1          -7.6330   -39.0810   -22.5640 h1         1 YG3       0.088200
     30 H2          -5.9180   -39.4870   -22.3690 h1         1 YG3       0.088200
     31 H3          -7.1370   -36.7300   -21.8450 h1         1 YG3       0.092700
     32 H4          -6.4430   -37.1610   -18.5260 h2         1 YG3       0.077700
     33 H5          -5.5990   -38.2810   -16.6860 h5         1 YG3       0.063800
     34 H6          -3.3300   -41.3620   -21.8160 h5         1 YG3       0.055100
     35 H7          -3.9570   -36.6110   -19.5940 h1         1 YG3       0.069700
     36 H8          -4.3020   -37.8070   -21.6160 h1         1 YG3       0.077700
     37 H10         -6.0110   -36.4140   -29.2600 hn         1 YG3       0.418000
     38 H12         -5.1800   -37.4130   -26.7580 hn         1 YG3       0.387500
     39 H13         -9.0680   -37.4390   -27.7810 hc         1 YG3       0.053033
     40 H14         -7.9200   -36.1480   -27.3960 hc         1 YG3       0.053033
     41 H15         -8.3890   -36.4540   -29.0730 hc         1 YG3       0.053033
     42 H16         -7.3030   -38.6790   -29.0020 h1         1 YG3       0.060700
     43 H17         -2.2220   -43.2910   -17.9220 hn         1 YG3       0.508500
     44 H18         -2.9080   -42.3180   -16.6710 hn         1 YG3       0.508500
     45 H19         -5.4520   -35.0010   -18.9860 ho         1 YG3       0.500000
     46 H20         -4.3920   -36.2660   -23.1480 ho         1 YG3       0.532000
     47 H9          -5.1780   -37.8080   -29.1910 hn         1 YG3       0.418000
@<TRIPOS>BOND
     1     1     2 1   
     2     1    24 1   
     3     1    29 1   
     4     1    30 1   
     5     2    10 1   
     6     2    25 1   
     7     2    31 1   
     8     3     9 1   
     9     3    14 1   
    10     3    25 1   
    11     3    32 1   
    12     4     6 ar  
    13     4    14 1   
    14     4    20 ar  
    15     5    14 1   
    16     5    17 2   
    17     5    33 1   
    18     6     7 ar  
    19     6    17 1   
    20     7    18 1   
    21     7    19 ar  
    22     8    19 ar  
    23     8    20 ar  
    24     8    34 1   
    25     9    10 1   
    26     9    26 1   
    27     9    35 1   
    28    10    27 1   
    29    10    36 1   
    30    11    16 1   
    31    11    37 1   
    32    11    47 1   
    33    12    13 1   
    34    12    28 1   
    35    12    38 1   
    36    13    16 1   
    37    13    21 2   
    38    15    16 1   
    39    15    39 1   
    40    15    40 1   
    41    15    41 1   
    42    16    42 1   
    43    18    43 1   
    44    18    44 1   
    45    22    28 2   
    46    23    28 2   
    47    24    28 1   
    48    26    45 1   
    49    27    46 1   
@<TRIPOS>SUBSTRUCTURE
     1 YG3         1 TEMP              0 ****  ****    0 ROOT
