@<TRIPOS>MOLECULE
YG3
   47    49     1     0     0
SMALL
No Charge or Current Charge


@<TRIPOS>ATOM
      1 C4          -4.7290   -39.9660   -23.8610 c3         1 YG3       0.197600
      2 C5          -5.0820   -38.7680   -22.9240 c5         1 YG3       0.113300
      3 C6          -5.7960   -38.2780   -20.7430 c5         1 YG3       0.285300
      4 C11         -4.7190   -39.7920   -19.0030 ca         1 YG3       0.142500
      5 C7          -6.7100   -38.9360   -18.4760 cc         1 YG3       0.403700
      6 C8          -5.1280   -40.2060   -17.7590 ca         1 YG3      -0.106600
      7 C9          -4.2800   -41.0640   -17.0310 ca         1 YG3       0.454900
      8 C10         -2.7900   -41.0010   -18.7660 ca         1 YG3       0.192900
      9 C12         -4.6070   -37.3050   -21.0840 c5         1 YG3       0.131300
     10 C13         -3.8700   -38.0750   -22.2260 c5         1 YG3       0.152300
     11 N1          -7.0310   -35.2880   -26.9650 n8         1 YG3      -1.032200
     12 N2          -5.7120   -37.7170   -26.5120 ns         1 YG3      -0.601300
     13 C3          -6.9130   -37.8920   -27.1100 c          1 YG3       0.636100
     14 N3          -5.7210   -38.9820   -19.4630 na         1 YG3      -0.306300
     15 C1          -8.9370   -36.6520   -26.1370 c3         1 YG3      -0.098100
     16 C2          -7.7810   -36.5820   -27.1570 c3         1 YG3       0.084500
     17 N4          -6.3740   -39.6790   -17.4050 nd         1 YG3      -0.544100
     18 N5          -4.5930   -41.5250   -15.7910 nv         1 YG3      -1.062900
     19 N6          -3.1010   -41.4650   -17.5310 nb         1 YG3      -0.299000
     20 N7          -3.5440   -40.1790   -19.5350 nb         1 YG3      -0.247000
     21 O1          -7.2820   -38.9530   -27.5910 o          1 YG3      -0.537100
     22 O2          -3.4220   -38.1450   -25.5560 o          1 YG3      -0.564000
     23 O3          -4.3000   -39.5920   -27.4730 o          1 YG3      -0.564000
     24 O4          -5.3200   -39.7780   -25.1670 os         1 YG3      -0.585700
     25 O5          -5.8580   -39.2530   -21.8080 os         1 YG3      -0.433000
     26 O6          -5.0610   -36.0340   -21.5770 oh         1 YG3      -0.679000
     27 O7          -3.1340   -37.1550   -23.0610 oh         1 YG3      -0.690000
     28 S1          -4.5240   -38.8260   -26.2440 s6         1 YG3       1.453500
     29 H1          -5.1350   -40.8790   -23.4050 h1         1 YG3       0.088200
     30 H2          -3.6400   -40.1100   -23.9160 h1         1 YG3       0.088200
     31 H3          -5.6940   -38.0370   -23.4710 h1         1 YG3       0.092700
     32 H4          -6.7330   -37.7060   -20.7200 h2         1 YG3       0.077700
     33 H5          -7.6210   -38.3600   -18.5940 h5         1 YG3       0.063800
     34 H6          -1.8370   -41.3210   -19.1830 h5         1 YG3       0.055100
     35 H7          -3.9460   -37.1640   -20.2170 h1         1 YG3       0.069700
     36 H8          -3.1940   -38.8320   -21.8050 h1         1 YG3       0.077700
     37 H10         -7.6980   -34.5040   -26.9710 hn         1 YG3       0.418000
     38 H12         -5.4810   -36.8060   -26.1580 hn         1 YG3       0.387500
     39 H13         -9.5530   -37.5410   -26.3150 hc         1 YG3       0.053033
     40 H14         -8.5500   -36.7040   -25.1120 hc         1 YG3       0.053033
     41 H15         -9.5850   -35.7710   -26.2190 hc         1 YG3       0.053033
     42 H16         -8.2290   -36.5540   -28.1600 h1         1 YG3       0.060700
     43 H17         -3.8380   -41.8790   -15.2100 hn         1 YG3       0.508500
     44 H18         -5.3620   -41.0650   -15.3090 hn         1 YG3       0.508500
     45 H19         -4.3930   -35.8050   -22.2700 ho         1 YG3       0.500000
     46 H20         -3.0420   -37.5580   -23.9680 ho         1 YG3       0.532000
     47 H9          -6.4510   -35.0980   -27.7950 hn         1 YG3       0.418000
@<TRIPOS>BOND
     1     1     2 1   
     2     1    24 1   
     3     1    29 1   
     4     1    30 1   
     5     2    10 1   
     6     2    25 1   
     7     2    31 1   
     8     3     9 1   
     9     3    14 1   
    10     3    25 1   
    11     3    32 1   
    12     4     6 ar  
    13     4    14 1   
    14     4    20 ar  
    15     5    14 1   
    16     5    17 2   
    17     5    33 1   
    18     6     7 ar  
    19     6    17 1   
    20     7    18 1   
    21     7    19 ar  
    22     8    19 ar  
    23     8    20 ar  
    24     8    34 1   
    25     9    10 1   
    26     9    26 1   
    27     9    35 1   
    28    10    27 1   
    29    10    36 1   
    30    11    16 1   
    31    11    37 1   
    32    11    47 1   
    33    12    13 1   
    34    12    28 1   
    35    12    38 1   
    36    13    16 1   
    37    13    21 2   
    38    15    16 1   
    39    15    39 1   
    40    15    40 1   
    41    15    41 1   
    42    16    42 1   
    43    18    43 1   
    44    18    44 1   
    45    22    28 2   
    46    23    28 2   
    47    24    28 1   
    48    26    45 1   
    49    27    46 1   
@<TRIPOS>SUBSTRUCTURE
     1 YG3         1 TEMP              0 ****  ****    0 ROOT
