@<TRIPOS>MOLECULE
YG4
  114   121     1     0     0
SMALL
No Charge or Current Charge


@<TRIPOS>ATOM
      1 C1          91.9490   -28.1170    47.0140 c5         1 YG4       0.404500
      2 C2          89.8730   -31.8090    47.5190 cc         1 YG4       0.690800
      3 C3          93.3580   -28.8210    46.8920 c5         1 YG4       0.108300
      4 C4          93.9030   -28.0470    45.6410 c5         1 YG4       0.207300
      5 C5          90.3430   -29.9330    46.4160 cd         1 YG4       0.392600
      6 C6          93.4840   -26.5940    46.0440 c5         1 YG4       0.100300
      7 C7          89.1960   -30.0120    45.7100 cc         1 YG4      -0.202200
      8 C8          93.4490   -25.5440    44.9010 c3         1 YG4       0.236600
      9 C9          88.2560   -31.1290    45.9080 c          1 YG4       0.599200
     10 C10         90.2420   -27.9780    45.1210 c5         1 YG4       0.425000
     11 C12         96.2480   -28.2680    37.6140 c3         1 YG4       0.242600
     12 C13         95.6650   -27.1260    36.7360 c5         1 YG4       0.145300
     13 C14         96.6250   -25.9590    36.3930 c5         1 YG4       0.216300
     14 C15         95.5990   -24.8990    35.8690 c5         1 YG4       0.093300
     15 C16         94.3320   -25.1980    36.7600 c5         1 YG4       0.434500
     16 C17         94.1680   -24.5870    39.2190 c5         1 YG4       0.431000
     17 C18         93.1820   -22.4810    38.8050 ca         1 YG4       0.018000
     18 C19         92.5240   -21.2300    38.8210 ca         1 YG4       0.342900
     19 C20         92.9290   -21.0470    36.5600 ca         1 YG4       0.126900
     20 C21         93.6850   -22.9060    37.6050 ca         1 YG4       0.316900
     21 C23         98.2360   -23.8240    33.5540 c3         1 YG4       0.229600
     22 C24         98.1580   -22.2750    33.4270 c5         1 YG4       0.167300
     23 C25         99.4740   -21.5430    33.9150 c5         1 YG4       0.094300
     24 C26         98.9460   -20.4950    34.9480 c5         1 YG4       0.090300
     25 C27         97.6790   -21.2720    35.4490 c5         1 YG4       0.312700
     26 C28         96.0000   -19.3890    35.6620 c          1 YG4       0.633000
     27 C29         95.1820   -18.6770    37.8490 c          1 YG4       0.614200
     28 C30         96.0030   -19.7320    38.4300 cc         1 YG4      -0.383200
     29 C31         96.7890   -20.5530    37.6540 cd         1 YG4       0.027600
     30 N1          88.7110   -31.9850    46.8520 ns         1 YG4      -0.444400
     31 N2          90.1580   -32.7310    48.4250 nv         1 YG4      -1.063200
     32 N3          90.7380   -30.8350    47.3860 nd         1 YG4      -0.693300
     33 N4          89.0760   -28.9100    44.8630 nh         1 YG4      -0.567400
     34 N5          91.0330   -28.8110    46.0790 nh         1 YG4      -0.643400
     35 N6          94.2800   -24.1380    37.7950 nh         1 YG4      -0.770300
     36 N7          93.3840   -23.4450    39.8150 nu         1 YG4      -0.837200
     37 N8          91.9460   -20.6950    39.9370 nv         1 YG4      -1.067900
     38 N9          92.3920   -20.5130    37.6890 nb         1 YG4      -0.315000
     39 N10         93.5810   -22.2290    36.4500 nb         1 YG4      -0.255000
     40 N11         96.8150   -20.3710    36.2710 n          1 YG4      -0.298000
     41 N12         95.2530   -18.6200    36.4970 ns         1 YG4      -0.469500
     42 O1          94.1670   -28.6500    48.0860 oh         1 YG4      -0.675000
     43 O2          95.3140   -28.2460    45.4130 oh         1 YG4      -0.768000
     44 O3          92.1450   -26.7430    46.5920 os         1 YG4      -0.495000
     45 O4          94.7260   -25.5050    44.2650 os         1 YG4      -0.583400
     46 O9          93.7750   -28.4720    41.5060 o          1 YG4      -0.878000
     47 O10         95.6380   -27.8390    42.9750 o          1 YG4      -0.878000
     48 O11         95.6270   -27.0920    40.4700 os         1 YG4      -0.723800
     49 O12         96.3980   -29.5660    40.2910 o          1 YG4      -0.850500
     50 O13         98.0160   -27.8250    41.0000 o          1 YG4      -0.850500
     51 O14         97.0620   -27.7320    38.6720 os         1 YG4      -0.588400
     52 O15         94.5550   -26.4790    37.3880 os         1 YG4      -0.423000
     53 O16         97.5170   -26.3790    35.3200 os         1 YG4      -0.587400
     54 O17         95.2710   -25.1640    34.4670 os         1 YG4      -0.425000
     55 O18         99.8350   -26.2650    34.2230 o          1 YG4      -0.806000
     56 O19         99.6320   -25.7250    36.6180 o          1 YG4      -0.806000
     57 O20         98.5330   -24.1730    34.9150 os         1 YG4      -0.598400
     58 O21         97.0780   -21.7320    34.2330 os         1 YG4      -0.389000
     59 O22        100.1710   -20.8470    32.8770 oh         1 YG4      -0.709000
     60 O23         98.6600   -19.2440    34.2720 oh         1 YG4      -0.730000
     61 O24         95.9940   -19.1630    34.4620 o          1 YG4      -0.581000
     62 O25         94.5000   -17.9020    38.4960 o          1 YG4      -0.576000
     63 P1          94.8420   -24.9410    42.7630 p5         1 YG4       1.450800
     64 P2          94.8320   -27.4550    41.7780 p5         1 YG4       1.559800
     65 P3          96.7840   -28.1260    40.2120 p5         1 YG4       1.477800
     66 P4          98.9680   -25.6760    35.2840 p5         1 YG4       1.388800
     67 H1          91.5650   -28.1560    48.0420 h2         1 YG4       0.056700
     68 H2          93.2550   -29.8910    46.6650 h1         1 YG4       0.053700
     69 H3          93.3460   -28.3550    44.7430 h1         1 YG4       0.057700
     70 H4          94.1400   -26.2160    46.8400 h1         1 YG4       0.063700
     71 H5          93.2000   -24.5610    45.3210 h1         1 YG4       0.010200
     72 H6          92.6630   -25.8240    44.1860 h1         1 YG4       0.010200
     73 H7          90.8080   -27.7780    44.2010 h2         1 YG4       0.095200
     74 H8          89.9010   -27.0390    45.5790 h2         1 YG4       0.095200
     75 H9          87.5930   -29.2650    43.3870 h1         1 YG4       0.046700
     76 H10         87.0110   -28.4160    44.8440 h1         1 YG4       0.046700
     77 H11         87.9960   -27.5490    43.6390 h1         1 YG4       0.046700
     78 H12         95.4160   -28.8720    37.9990 h1         1 YG4       0.030200
     79 H13         96.8600   -28.9170    36.9740 h1         1 YG4       0.030200
     80 H14         95.2800   -27.5810    35.8130 h1         1 YG4       0.032700
     81 H15         97.1710   -25.6020    37.2780 h1         1 YG4       0.102700
     82 H16         95.9730   -23.8720    35.9700 h1         1 YG4       0.072700
     83 H17         93.4100   -25.2230    36.1660 h2         1 YG4       0.042700
     84 H18         93.6170   -25.5360    39.3240 h2         1 YG4       0.127200
     85 H19         95.1620   -24.6910    39.6830 h2         1 YG4       0.127200
     86 H20         92.8230   -20.4640    35.6470 h5         1 YG4       0.008100
     87 H21         94.2800   -24.5120    32.7500 h1         1 YG4       0.009367
     88 H22         93.3980   -24.2380    34.2660 h1         1 YG4       0.009367
     89 H23         94.8000   -23.2190    33.8530 h1         1 YG4       0.009367
     90 H24         97.2860   -24.2630    33.2300 h1         1 YG4       0.034200
     91 H25         99.0210   -24.1840    32.8760 h1         1 YG4       0.034200
     92 H26         97.9410   -22.0370    32.3770 h1         1 YG4       0.044700
     93 H27        100.1450   -22.2590    34.4140 h1         1 YG4       0.096700
     94 H28         99.6640   -20.3400    35.7660 h1         1 YG4       0.071700
     95 H29         97.9640   -22.1260    36.0770 h2         1 YG4       0.095700
     96 H30         95.9570   -19.8240    39.5080 ha         1 YG4       0.219000
     97 H31         97.4200   -21.3530    38.0370 h4         1 YG4       0.217000
     98 H32         88.1450   -32.7940    47.0430 hn         1 YG4       0.296500
     99 H33         90.9190   -32.4730    49.0420 hn         1 YG4       0.481500
    100 H34         89.3810   -33.2070    48.8650 hn         1 YG4       0.481500
    101 H35         93.5400   -23.1580    40.7900 hn         1 YG4       0.445000
    102 H36         91.3080   -19.9120    39.8260 hn         1 YG4       0.469000
    103 H37         91.8080   -21.2980    40.7440 hn         1 YG4       0.469000
    104 H38         94.6960   -17.9070    36.0560 hn         1 YG4       0.318500
    105 H39         93.8500   -29.3100    48.7430 ho         1 YG4       0.454000
    106 H40         95.4700   -28.0320    44.4180 ho         1 YG4       0.626000
    107 H45         99.8630   -19.9130    33.0170 ho         1 YG4       0.494000
    108 H46         97.6660   -19.2040    34.1700 ho         1 YG4       0.528000
    109 C11         87.8520   -28.5130    44.1440 c3         1 YG4       0.150100
    110 C22         94.3940   -24.2370    33.8060 c3         1 YG4       0.152900
    111 O5          87.1950   -31.3040    45.3250 o          1 YG4      -0.601000
    112 O6          94.0910   -23.6560    42.6340 o          1 YG4      -0.839000
    113 O7          96.2590   -24.7470    42.3460 o          1 YG4      -0.839000
    114 O8          94.0940   -26.0770    41.9670 os         1 YG4      -0.729800
@<TRIPOS>BOND
     1     1     3 1   
     2     1    34 1   
     3     1    44 1   
     4     1    67 1   
     5     2    30 1   
     6     2    31 1   
     7     2    32 2   
     8     3     4 1   
     9     3    42 1   
    10     3    68 1   
    11     4     6 1   
    12     4    43 1   
    13     4    69 1   
    14     5     7 2   
    15     5    32 1   
    16     5    34 1   
    17     6     8 1   
    18     6    44 1   
    19     6    70 1   
    20     7     9 1   
    21     7    33 1   
    22     8    45 1   
    23     8    71 1   
    24     8    72 1   
    25     9    30 1   
    26     9   111 2   
    27    10    33 1   
    28    10    34 1   
    29    10    73 1   
    30    10    74 1   
    31    11    12 1   
    32    11    51 1   
    33    11    78 1   
    34    11    79 1   
    35    12    13 1   
    36    12    52 1   
    37    12    80 1   
    38    13    14 1   
    39    13    53 1   
    40    13    81 1   
    41    14    15 1   
    42    14    54 1   
    43    14    82 1   
    44    15    35 1   
    45    15    52 1   
    46    15    83 1   
    47    16    35 1   
    48    16    36 1   
    49    16    84 1   
    50    16    85 1   
    51    17    18 ar  
    52    17    20 ar  
    53    17    36 1   
    54    18    37 1   
    55    18    38 ar  
    56    19    38 ar  
    57    19    39 ar  
    58    19    86 1   
    59    20    35 1   
    60    20    39 ar  
    61    21    22 1   
    62    21    57 1   
    63    21    90 1   
    64    21    91 1   
    65    22    23 1   
    66    22    58 1   
    67    22    92 1   
    68    23    24 1   
    69    23    59 1   
    70    23    93 1   
    71    24    25 1   
    72    24    60 1   
    73    24    94 1   
    74    25    40 1   
    75    25    58 1   
    76    25    95 1   
    77    26    40 1   
    78    26    41 1   
    79    26    61 2   
    80    27    28 1   
    81    27    41 1   
    82    27    62 2   
    83    28    29 2   
    84    28    96 1   
    85    29    40 1   
    86    29    97 1   
    87    30    98 1   
    88    31    99 1   
    89    31   100 1   
    90    33   109 1   
    91    36   101 1   
    92    37   102 1   
    93    37   103 1   
    94    41   104 1   
    95    42   105 1   
    96    43   106 1   
    97    45    63 1   
    98    46    64 1   
    99    47    64 1   
   100    48    64 1   
   101    48    65 1   
   102    49    65 1   
   103    50    65 1   
   104    51    65 1   
   105    53    66 1   
   106    54   110 1   
   107    55    66 1   
   108    56    66 1   
   109    57    66 1   
   110    59   107 1   
   111    60   108 1   
   112    63   112 1   
   113    63   113 1   
   114    63   114 1   
   115    64   114 1   
   116    75   109 1   
   117    76   109 1   
   118    77   109 1   
   119    87   110 1   
   120    88   110 1   
   121    89   110 1   
@<TRIPOS>SUBSTRUCTURE
     1 YG4         1 TEMP              0 ****  ****    0 ROOT
