@<TRIPOS>MOLECULE
YG4
  114   121     1     0     0
SMALL
abcg2


@<TRIPOS>ATOM
      1 C1          92.2790   -29.5550    47.1290 c5         1 YG4       0.404500
      2 C2          88.4390   -30.9260    48.1120 cc         1 YG4       0.690800
      3 C3          93.7600   -29.7790    46.8020 c5         1 YG4       0.108300
      4 C4          94.0870   -28.5880    45.8980 c5         1 YG4       0.207300
      5 C5          90.0960   -30.5640    46.6660 cd         1 YG4       0.392600
      6 C6          93.1920   -27.4860    46.4880 c5         1 YG4       0.100300
      7 C7          89.3550   -30.9060    45.5620 cc         1 YG4      -0.202200
      8 C8          92.6550   -26.4870    45.4760 c3         1 YG4       0.236600
      9 C9          88.0350   -31.3580    45.7290 c          1 YG4       0.599200
     10 C10         91.3740   -30.1510    44.8270 c5         1 YG4       0.425000
     11 C12         96.2520   -27.4920    38.0550 c3         1 YG4       0.242600
     12 C13         95.4250   -26.7380    37.0410 c5         1 YG4       0.145300
     13 C14         96.1600   -25.6920    36.2080 c5         1 YG4       0.216300
     14 C15         95.0130   -24.7730    35.7870 c5         1 YG4       0.093300
     15 C16         94.1660   -24.7730    37.0670 c5         1 YG4       0.434500
     16 C17         94.5910   -23.9040    39.4320 c5         1 YG4       0.431000
     17 C18         94.2220   -21.7220    38.9420 ca         1 YG4       0.018000
     18 C19         93.7960   -20.4080    38.9240 ca         1 YG4       0.342900
     19 C20         93.3440   -20.6610    36.6980 ca         1 YG4       0.126900
     20 C21         94.1670   -22.4320    37.7520 ca         1 YG4       0.316900
     21 C23         97.7800   -23.7670    33.5400 c3         1 YG4       0.229600
     22 C24         97.7740   -22.2640    33.7030 c5         1 YG4       0.167300
     23 C25         99.1620   -21.6310    33.8030 c5         1 YG4       0.094300
     24 C26         98.9010   -20.3530    34.6220 c5         1 YG4       0.090300
     25 C27         97.7460   -20.8330    35.5320 c5         1 YG4       0.312700
     26 C28         95.9460   -19.2400    34.9500 c          1 YG4       0.633000
     27 C29         95.2520   -17.5530    36.6350 c          1 YG4       0.614200
     28 C30         96.1650   -18.1840    37.5540 cc         1 YG4      -0.383200
     29 C31         96.8770   -19.2450    37.1500 cd         1 YG4       0.027600
     30 N1          87.6430   -31.2990    47.0840 ns         1 YG4      -0.444400
     31 N2          87.9340   -30.9770    49.3560 nv         1 YG4      -1.063200
     32 N3          89.6880   -30.5550    47.9380 nd         1 YG4      -0.693300
     33 N4          90.1760   -30.8780    44.4100 nh         1 YG4      -0.567400
     34 N5          91.3780   -30.2770    46.2810 nh         1 YG4      -0.643400
     35 N6          94.5930   -23.7120    37.9680 nh         1 YG4      -0.770300
     36 N7          94.6760   -22.5540    39.9880 nu         1 YG4      -0.837200
     37 N8          93.8400   -19.5990    40.0100 nv         1 YG4      -1.067900
     38 N9          93.3480   -19.8880    37.7610 nb         1 YG4      -0.315000
     39 N10         93.7340   -21.9330    36.6020 nb         1 YG4      -0.255000
     40 N11         96.8010   -19.7790    35.8910 n          1 YG4      -0.298000
     41 N12         95.2230   -18.1610    35.3890 ns         1 YG4      -0.469500
     42 O1          94.5440   -29.6690    47.9620 oh         1 YG4      -0.675000
     43 O2          95.4390   -28.2890    45.8710 oh         1 YG4      -0.768000
     44 O3          92.0730   -28.1540    47.0570 os         1 YG4      -0.495000
     45 O4          93.7360   -25.8010    44.8790 os         1 YG4      -0.583400
     46 O9          94.4440   -29.1540    41.9250 o          1 YG4      -0.878000
     47 O10         95.9900   -27.6800    43.4100 o          1 YG4      -0.878000
     48 O11         95.5790   -27.0610    40.9710 os         1 YG4      -0.723800
     49 O12         97.7070   -28.4300    40.5630 o          1 YG4      -0.850500
     50 O13         97.8600   -25.8790    41.1260 o          1 YG4      -0.850500
     51 O14         96.8980   -26.6020    38.9350 os         1 YG4      -0.588400
     52 O15         94.3780   -26.0160    37.6790 os         1 YG4      -0.423000
     53 O16         96.8320   -26.2740    35.1290 os         1 YG4      -0.587400
     54 O17         94.3340   -25.3730    34.7200 os         1 YG4      -0.425000
     55 O18         98.7270   -26.6790    33.5660 o          1 YG4      -0.806000
     56 O19         99.2240   -26.2150    36.0990 o          1 YG4      -0.806000
     57 O20         98.4330   -24.3520    34.6440 os         1 YG4      -0.598400
     58 O21         97.1180   -21.9110    34.9110 os         1 YG4      -0.389000
     59 O22         99.6760   -21.4280    32.5210 oh         1 YG4      -0.709000
     60 O23         98.6400   -19.2150    33.8620 oh         1 YG4      -0.730000
     61 O24         95.8210   -19.6710    33.8220 o          1 YG4      -0.581000
     62 O25         94.5580   -16.5810    36.8660 o          1 YG4      -0.576000
     63 P1          93.6280   -25.3660    43.3000 p5         1 YG4       1.450800
     64 P2          94.9830   -27.8110    42.2910 p5         1 YG4       1.559800
     65 P3          97.1630   -27.0380    40.4960 p5         1 YG4       1.477800
     66 P4          98.4320   -25.9830    34.8540 p5         1 YG4       1.388800
     67 H1          92.0590   -29.8900    48.1450 h2         1 YG4       0.056700
     68 H2          93.9180   -30.7410    46.2990 h1         1 YG4       0.053700
     69 H3          93.7160   -28.8300    44.8920 h1         1 YG4       0.057700
     70 H4          93.7460   -26.9550    47.2740 h1         1 YG4       0.063700
     71 H5          91.9860   -25.7760    45.9730 h1         1 YG4       0.010200
     72 H6          92.0520   -27.0300    44.7390 h1         1 YG4       0.010200
     73 H7          92.2740   -30.5800    44.3810 h2         1 YG4       0.095200
     74 H8          91.3170   -29.0890    44.5250 h2         1 YG4       0.095200
     75 H9          88.7410   -30.9410    42.8940 h1         1 YG4       0.046700
     76 H10         89.2920   -29.3000    43.2850 h1         1 YG4       0.046700
     77 H11         90.3410   -30.4120    42.3900 h1         1 YG4       0.046700
     78 H12         95.5970   -28.1940    38.5820 h1         1 YG4       0.030200
     79 H13         96.9830   -28.0980    37.5070 h1         1 YG4       0.030200
     80 H14         94.9940   -27.4900    36.3650 h1         1 YG4       0.032700
     81 H15         96.8300   -25.1180    36.8580 h1         1 YG4       0.102700
     82 H16         95.3560   -23.7670    35.5260 h1         1 YG4       0.072700
     83 H17         93.0940   -24.6650    36.8510 h2         1 YG4       0.042700
     84 H18         93.6570   -24.3830    39.7530 h2         1 YG4       0.127200
     85 H19         95.4260   -24.5090    39.7660 h2         1 YG4       0.127200
     86 H20         92.9690   -20.2130    35.7830 h5         1 YG4       0.008100
     87 H21         93.0540   -25.0570    33.1870 h1         1 YG4       0.009367
     88 H22         92.6750   -24.1010    34.6280 h1         1 YG4       0.009367
     89 H23         94.0440   -23.6450    33.6030 h1         1 YG4       0.009367
     90 H24         96.7490   -24.1250    33.4440 h1         1 YG4       0.034200
     91 H25         98.2870   -24.0030    32.5980 h1         1 YG4       0.034200
     92 H26         97.2400   -21.8380    32.8420 h1         1 YG4       0.044700
     93 H27         99.8080   -22.2830    34.4030 h1         1 YG4       0.096700
     94 H28         99.7580   -20.0990    35.2500 h1         1 YG4       0.071700
     95 H29         98.1640   -21.1700    36.4850 h2         1 YG4       0.095700
     96 H30         96.2510   -17.8160    38.5640 ha         1 YG4       0.219000
     97 H31         97.5620   -19.7450    37.8210 h4         1 YG4       0.217000
     98 H32         86.6950   -31.5980    47.2760 hn         1 YG4       0.296500
     99 H33         88.4740   -30.5480    50.0890 hn         1 YG4       0.481500
    100 H34         86.9410   -31.0310    49.5100 hn         1 YG4       0.481500
    101 H35         95.6280   -22.3320    40.2570 hn         1 YG4       0.445000
    102 H36         93.2860   -18.7590    39.9750 hn         1 YG4       0.469000
    103 H37         93.8980   -20.0340    40.9170 hn         1 YG4       0.469000
    104 H38         94.5870   -17.7680    34.7060 hn         1 YG4       0.318500
    105 H39         94.3620   -30.4270    48.5250 ho         1 YG4       0.454000
    106 H40         95.6670   -28.0140    44.9460 ho         1 YG4       0.626000
    107 H45        100.6060   -21.1930    32.5930 ho         1 YG4       0.494000
    108 H46         98.0130   -19.4190    33.1590 ho         1 YG4       0.528000
    109 C11         89.6040   -30.3500    43.1900 c3         1 YG4       0.150100
    110 C22         93.4890   -24.4970    34.0130 c3         1 YG4       0.152900
    111 O5          87.2320   -31.7620    44.8900 o          1 YG4      -0.601000
    112 O6          92.2530   -24.8550    43.0090 o          1 YG4      -0.839000
    113 O7          94.8540   -24.5650    43.0110 o          1 YG4      -0.839000
    114 O8          93.6920   -26.8480    42.5630 os         1 YG4      -0.729800
@<TRIPOS>BOND
     1     1     3 1   
     2     1    34 1   
     3     1    44 1   
     4     1    67 1   
     5     2    30 1   
     6     2    31 1   
     7     2    32 2   
     8     3     4 1   
     9     3    42 1   
    10     3    68 1   
    11     4     6 1   
    12     4    43 1   
    13     4    69 1   
    14     5     7 2   
    15     5    32 1   
    16     5    34 1   
    17     6     8 1   
    18     6    44 1   
    19     6    70 1   
    20     7     9 1   
    21     7    33 1   
    22     8    45 1   
    23     8    71 1   
    24     8    72 1   
    25     9    30 1   
    26     9   111 2   
    27    10    33 1   
    28    10    34 1   
    29    10    73 1   
    30    10    74 1   
    31    11    12 1   
    32    11    51 1   
    33    11    78 1   
    34    11    79 1   
    35    12    13 1   
    36    12    52 1   
    37    12    80 1   
    38    13    14 1   
    39    13    53 1   
    40    13    81 1   
    41    14    15 1   
    42    14    54 1   
    43    14    82 1   
    44    15    35 1   
    45    15    52 1   
    46    15    83 1   
    47    16    35 1   
    48    16    36 1   
    49    16    84 1   
    50    16    85 1   
    51    17    18 ar  
    52    17    20 ar  
    53    17    36 1   
    54    18    37 1   
    55    18    38 ar  
    56    19    38 ar  
    57    19    39 ar  
    58    19    86 1   
    59    20    35 1   
    60    20    39 ar  
    61    21    22 1   
    62    21    57 1   
    63    21    90 1   
    64    21    91 1   
    65    22    23 1   
    66    22    58 1   
    67    22    92 1   
    68    23    24 1   
    69    23    59 1   
    70    23    93 1   
    71    24    25 1   
    72    24    60 1   
    73    24    94 1   
    74    25    40 1   
    75    25    58 1   
    76    25    95 1   
    77    26    40 1   
    78    26    41 1   
    79    26    61 2   
    80    27    28 1   
    81    27    41 1   
    82    27    62 2   
    83    28    29 2   
    84    28    96 1   
    85    29    40 1   
    86    29    97 1   
    87    30    98 1   
    88    31    99 1   
    89    31   100 1   
    90    33   109 1   
    91    36   101 1   
    92    37   102 1   
    93    37   103 1   
    94    41   104 1   
    95    42   105 1   
    96    43   106 1   
    97    45    63 1   
    98    46    64 1   
    99    47    64 1   
   100    48    64 1   
   101    48    65 1   
   102    49    65 1   
   103    50    65 1   
   104    51    65 1   
   105    53    66 1   
   106    54   110 1   
   107    55    66 1   
   108    56    66 1   
   109    57    66 1   
   110    59   107 1   
   111    60   108 1   
   112    63   112 1   
   113    63   113 1   
   114    63   114 1   
   115    64   114 1   
   116    75   109 1   
   117    76   109 1   
   118    77   109 1   
   119    87   110 1   
   120    88   110 1   
   121    89   110 1   
@<TRIPOS>SUBSTRUCTURE
     1 YG4         1 TEMP              0 ****  ****    0 ROOT
