@<TRIPOS>MOLECULE
YG5
   28    29     1     0     0
SMALL
abcg2


@<TRIPOS>ATOM
      1 C10        -36.4180    -0.1070   -20.3210 ca         1 YG5      -0.226900
      2 C13        -34.2600    -0.0910   -18.5740 ca         1 YG5      -0.072000
      3 C15        -35.1860    -0.7120   -20.6660 ca         1 YG5      -0.016200
      4 C01        -31.6310    -0.3990   -24.9910 c3         1 YG5       0.086300
      5 N02        -32.5200    -1.3080   -24.2810 n          1 YG5      -0.418800
      6 C03        -32.2060    -2.7210   -24.4440 c3         1 YG5       0.086300
      7 C04        -33.5010    -0.8220   -23.4950 c          1 YG5       0.578100
      8 O05        -33.7270     0.3800   -23.3580 o          1 YG5      -0.579100
      9 N07        -35.3500    -1.2330   -21.9160 na         1 YG5       0.067600
     10 N08        -36.5930    -0.9760   -22.4020 nc         1 YG5      -0.510100
     11 C09        -37.2430    -0.3150   -21.4630 cd         1 YG5       0.367800
     12 C11        -36.5640     0.5110   -19.0700 ca         1 YG5      -0.034000
     13 C12        -35.4840     0.5120   -18.2100 ca         1 YG5      -0.151000
     14 C14        -34.0880    -0.7080   -19.7980 ca         1 YG5      -0.129000
     15 H131       -33.4340    -0.0660   -17.8750 ha         1 YG5       0.111000
     16 H012       -31.9080     0.6260   -24.7690 h1         1 YG5       0.043867
     17 H011       -30.5980    -0.5760   -24.6800 h1         1 YG5       0.043867
     18 H013       -31.7050    -0.5730   -26.0670 h1         1 YG5       0.043867
     19 H032       -32.9910    -3.3570   -24.0510 h1         1 YG5       0.043867
     20 H033       -32.0920    -2.9400   -25.5070 h1         1 YG5       0.043867
     21 H031       -31.2670    -2.9630   -23.9390 h1         1 YG5       0.043867
     22 H061       -34.8760    -2.5000   -23.4550 h1         1 YG5       0.079200
     23 H062       -33.7250    -2.4890   -22.1230 h1         1 YG5       0.079200
     24 H091       -38.2680    -0.0160   -21.6180 h4         1 YG5       0.049800
     25 H111       -37.5000     0.9780   -18.7890 ha         1 YG5       0.117000
     26 H121       -35.5690     0.9830   -17.2380 ha         1 YG5       0.113000
     27 H141       -33.1450    -1.1620   -20.0720 ha         1 YG5       0.116000
     28 C06        -34.3580    -1.8570   -22.7460 c3         1 YG5       0.021600
@<TRIPOS>BOND
     1     1     3 ar  
     2     1    11 1   
     3     1    12 ar  
     4     2    13 ar  
     5     2    14 ar  
     6     2    15 1   
     7     3     9 1   
     8     3    14 ar  
     9     4     5 1   
    10     4    16 1   
    11     4    17 1   
    12     4    18 1   
    13     5     6 1   
    14     5     7 1   
    15     6    19 1   
    16     6    20 1   
    17     6    21 1   
    18     7     8 2   
    19     7    28 1   
    20     9    10 1   
    21     9    28 1   
    22    10    11 2   
    23    11    24 1   
    24    12    13 ar  
    25    12    25 1   
    26    13    26 1   
    27    14    27 1   
    28    22    28 1   
    29    23    28 1   
@<TRIPOS>SUBSTRUCTURE
     1 YG5         1 TEMP              0 ****  ****    0 ROOT
