@<TRIPOS>MOLECULE
YG5
   28    29     1     0     0
SMALL
No Charge or Current Charge


@<TRIPOS>ATOM
      1 C10        -36.4520    -0.2000   -20.2450 ca         1 YG5      -0.226900
      2 C13        -34.1440     0.1190   -18.7400 ca         1 YG5      -0.072000
      3 C15        -35.2610    -0.6250   -20.7400 ca         1 YG5      -0.016200
      4 C01        -31.4470    -0.4290   -24.9020 c3         1 YG5       0.086300
      5 N02        -32.4120    -1.3350   -24.2360 n          1 YG5      -0.418800
      6 C03        -32.2040    -2.7950   -24.3830 c3         1 YG5       0.086300
      7 C04        -33.5280    -0.8060   -23.5420 c          1 YG5       0.578100
      8 O05        -33.7080     0.4070   -23.5020 o          1 YG5      -0.579100
      9 N07        -35.5010    -1.1650   -21.9910 na         1 YG5       0.067600
     10 N08        -36.8600    -1.1130   -22.3190 nc         1 YG5      -0.510100
     11 C09        -37.4330    -0.5150   -21.2600 cd         1 YG5       0.367800
     12 C11        -36.5710     0.4020   -18.9850 ca         1 YG5      -0.034000
     13 C12        -35.3900     0.5600   -18.2280 ca         1 YG5      -0.151000
     14 C14        -34.0680    -0.4840   -20.0150 ca         1 YG5      -0.129000
     15 H131       -33.2400     0.2460   -18.1470 ha         1 YG5       0.111000
     16 H012       -31.1250     0.3530   -24.2020 h1         1 YG5       0.043867
     17 H011       -30.5600    -0.9810   -25.2370 h1         1 YG5       0.043867
     18 H013       -31.9230     0.0420   -25.7710 h1         1 YG5       0.043867
     19 H032       -33.1030    -3.2620   -24.8040 h1         1 YG5       0.043867
     20 H033       -31.3620    -3.0010   -25.0560 h1         1 YG5       0.043867
     21 H031       -31.9860    -3.2400   -23.4040 h1         1 YG5       0.043867
     22 H061       -34.9760    -2.3930   -23.6180 h1         1 YG5       0.079200
     23 H062       -33.8800    -2.4730   -22.2230 h1         1 YG5       0.079200
     24 H091       -38.5030    -0.3480   -21.2620 h4         1 YG5       0.049800
     25 H111       -37.5350     0.7340   -18.6040 ha         1 YG5       0.117000
     26 H121       -35.4380     1.0220   -17.2450 ha         1 YG5       0.113000
     27 H141       -33.1160    -0.8230   -20.4150 ha         1 YG5       0.116000
     28 C06        -34.4800    -1.7980   -22.8430 c3         1 YG5       0.021600
@<TRIPOS>BOND
     1     1     3 ar  
     2     1    11 1   
     3     1    12 ar  
     4     2    13 ar  
     5     2    14 ar  
     6     2    15 1   
     7     3     9 1   
     8     3    14 ar  
     9     4     5 1   
    10     4    16 1   
    11     4    17 1   
    12     4    18 1   
    13     5     6 1   
    14     5     7 1   
    15     6    19 1   
    16     6    20 1   
    17     6    21 1   
    18     7     8 2   
    19     7    28 1   
    20     9    10 1   
    21     9    28 1   
    22    10    11 2   
    23    11    24 1   
    24    12    13 ar  
    25    12    25 1   
    26    13    26 1   
    27    14    27 1   
    28    22    28 1   
    29    23    28 1   
@<TRIPOS>SUBSTRUCTURE
     1 YG5         1 TEMP              0 ****  ****    0 ROOT
