@<TRIPOS>MOLECULE
YG7
   60    64     1     0     0
SMALL
bcc


@<TRIPOS>ATOM
      1 C10        154.2900   166.0810   150.1010 c6         1 YG7       0.192800
      2 C13        151.8450   169.5530   148.9480 c3         1 YG7      -0.074400
      3 C15        156.4990   165.0800   150.2820 ca         1 YG7       0.129600
      4 C17        151.6940   172.6860   149.2350 cc         1 YG7      -0.121400
      5 C20        152.5940   173.7570   149.5510 ca         1 YG7      -0.111800
      6 C21        158.4350   164.2380   151.4300 ca         1 YG7      -0.101800
      7 C22        150.8880   172.5500   150.3290 cd         1 YG7      -0.108100
      8 C24        156.8370   162.6580   150.4900 ca         1 YG7      -0.105000
      9 C26        159.6610   164.0970   152.1550 cc         1 YG7      -0.106200
     10 C28        152.9560   175.2600   151.4700 ca         1 YG7      -0.152000
     11 C08        153.5020   166.9990   149.1890 c6         1 YG7       0.158300
     12 C09        155.4110   168.3600   148.8960 c6         1 YG7       0.158300
     13 C11        156.2260   167.4550   149.8020 c6         1 YG7       0.192800
     14 C14        151.0640   170.5180   148.0590 c3         1 YG7      -0.072400
     15 C16        151.6450   171.9280   147.9480 c3         1 YG7      -0.003200
     16 C18        157.6710   165.3250   150.9880 ca         1 YG7      -0.135000
     17 C19        156.1070   163.7380   150.0420 ca         1 YG7      -0.128000
     18 C23        158.0030   162.9390   151.1830 ca         1 YG7       0.046100
     19 C25        152.2680   174.2170   150.8510 ca         1 YG7      -0.027200
     20 C27        153.6390   174.3630   148.8600 ca         1 YG7      -0.030000
     21 C29        159.8690   162.7650   152.2810 cd         1 YG7      -0.062100
     22 C30        154.3270   175.4010   149.4780 ca         1 YG7      -0.059000
     23 C31        153.9870   175.8480   150.7740 ca         1 YG7      -0.074000
     24 C32        160.9850   162.0530   152.9350 c          1 YG7       0.715300
     25 C33        155.4010   176.0340   148.7900 cg         1 YG7       0.241800
     26 N03        154.0080   168.3560   149.2600 n3         1 YG7      -0.715600
     27 N04        155.7050   166.1050   149.7570 nh         1 YG7      -0.647000
     28 N05        151.2310   173.4650   151.2920 na         1 YG7      -0.168400
     29 N06        160.9330   160.7150   152.8990 nt         1 YG7      -0.664000
     30 N07        156.2720   176.5510   148.2370 n1         1 YG7      -0.378800
     31 O01        158.8760   162.0440   151.6970 os         1 YG7      -0.178200
     32 O02        161.8830   162.6910   153.4650 o          1 YG7      -0.594100
     33 H1         154.1420   166.3920   151.1470 h1         1 YG7       0.044450
     34 H2         153.8940   165.0720   150.0040 h1         1 YG7       0.044450
     35 H3         151.9050   169.9330   149.9700 hc         1 YG7       0.046200
     36 H4         151.2760   168.6210   149.0000 hc         1 YG7       0.046200
     37 H5         150.0810   171.8570   150.5070 h4         1 YG7       0.165000
     38 H6         156.5160   161.6450   150.2880 ha         1 YG7       0.148000
     39 H7         160.3000   164.8800   152.5300 ha         1 YG7       0.179000
     40 H8         152.6940   175.6000   152.4630 ha         1 YG7       0.138000
     41 H9         152.4580   166.9700   149.5060 h1         1 YG7       0.040200
     42 H10        153.5410   166.6070   148.1580 h1         1 YG7       0.040200
     43 H11        155.5600   168.0420   147.8500 h1         1 YG7       0.040200
     44 H12        155.7990   169.3770   148.9810 h1         1 YG7       0.040200
     45 H13        157.2590   167.4590   149.4510 h1         1 YG7       0.044450
     46 H14        156.2230   167.8620   150.8260 h1         1 YG7       0.044450
     47 H15        153.2000   168.9370   147.3860 h1         1 YG7       0.032700
     48 H16        153.8110   170.2230   148.4170 h1         1 YG7       0.032700
     49 H17        150.0340   170.5820   148.4220 hc         1 YG7       0.038700
     50 H18        150.9950   170.0980   147.0510 hc         1 YG7       0.038700
     51 H19        152.6500   171.8840   147.5200 hc         1 YG7       0.047200
     52 H20        151.0510   172.4890   147.2190 hc         1 YG7       0.047200
     53 H21        158.0030   166.3310   151.2070 ha         1 YG7       0.142000
     54 H22        155.2140   163.5460   149.4630 ha         1 YG7       0.139000
     55 H23        153.9140   174.0380   147.8650 ha         1 YG7       0.143000
     56 H24        154.5460   176.6600   151.2190 ha         1 YG7       0.142000
     57 H28        150.7860   173.5530   152.1910 hn         1 YG7       0.303700
     58 H29        161.6680   160.1770   153.3270 hn         1 YG7       0.323500
     59 H30        160.1840   160.2070   152.4580 hn         1 YG7       0.323500
     60 C12        153.2530   169.2830   148.4340 c3         1 YG7       0.167800
@<TRIPOS>BOND
     1     1    11 1   
     2     1    27 1   
     3     1    33 1   
     4     1    34 1   
     5     2    14 1   
     6     2    35 1   
     7     2    36 1   
     8     2    60 1   
     9     3    16 ar  
    10     3    17 ar  
    11     3    27 1   
    12     4     5 1   
    13     4     7 2   
    14     4    15 1   
    15     5    19 ar  
    16     5    20 ar  
    17     6     9 1   
    18     6    16 ar  
    19     6    18 ar  
    20     7    28 1   
    21     7    37 1   
    22     8    17 ar  
    23     8    18 ar  
    24     8    38 1   
    25     9    21 2   
    26     9    39 1   
    27    10    19 ar  
    28    10    23 ar  
    29    10    40 1   
    30    11    26 1   
    31    11    41 1   
    32    11    42 1   
    33    12    13 1   
    34    12    26 1   
    35    12    43 1   
    36    12    44 1   
    37    13    27 1   
    38    13    45 1   
    39    13    46 1   
    40    14    15 1   
    41    14    49 1   
    42    14    50 1   
    43    15    51 1   
    44    15    52 1   
    45    16    53 1   
    46    17    54 1   
    47    18    31 1   
    48    19    28 1   
    49    20    22 ar  
    50    20    55 1   
    51    21    24 1   
    52    21    31 1   
    53    22    23 ar  
    54    22    25 1   
    55    23    56 1   
    56    24    29 1   
    57    24    32 2   
    58    25    30 3   
    59    26    60 1   
    60    28    57 1   
    61    29    58 1   
    62    29    59 1   
    63    47    60 1   
    64    48    60 1   
@<TRIPOS>SUBSTRUCTURE
     1 YG7         1 TEMP              0 ****  ****    0 ROOT
