@<TRIPOS>MOLECULE
YG7
   60    64     1     0     0
SMALL
No Charge or Current Charge


@<TRIPOS>ATOM
      1 C10        154.2720   166.0500   150.2570 c6         1 YG7       0.192800
      2 C13        151.8120   169.6240   148.8810 c3         1 YG7      -0.074400
      3 C15        156.5410   164.9410   150.3550 ca         1 YG7       0.268000
      4 C17        151.6640   172.8010   149.2310 cc         1 YG7      -0.121400
      5 C20        152.5080   173.9180   149.5500 ca         1 YG7      -0.111800
      6 C21        158.4530   164.0080   151.5140 ca         1 YG7      -0.101800
      7 C22        150.8710   172.5960   150.3590 cd         1 YG7      -0.158100
      8 C24        156.9550   162.5060   150.3320 ca         1 YG7      -0.087000
      9 C26        159.6600   163.8890   152.3070 cc         1 YG7      -0.156200
     10 C28        152.8770   175.3980   151.4220 ca         1 YG7      -0.134000
     11 C08        153.4660   167.0070   149.3180 c6         1 YG7       0.158300
     12 C09        155.4680   168.3430   148.9040 c6         1 YG7       0.158300
     13 C11        156.3120   167.4180   149.8400 c6         1 YG7       0.192800
     14 C14        151.0420   170.6260   147.9820 c3         1 YG7      -0.072400
     15 C16        151.6350   172.0560   147.9170 c3         1 YG7      -0.003200
     16 C18        157.7020   165.1330   151.1500 ca         1 YG7      -0.117000
     17 C19        156.1820   163.6260   149.9530 ca         1 YG7      -0.110000
     18 C23        158.0860   162.7440   151.1160 ca         1 YG7       0.046100
     19 C25        152.2120   174.3200   150.8210 ca         1 YG7      -0.027200
     20 C27        153.4890   174.5610   148.7800 ca         1 YG7      -0.012000
     21 C29        159.9330   162.5250   152.3230 cd         1 YG7      -0.062100
     22 C30        154.1790   175.6520   149.3570 ca         1 YG7      -0.059000
     23 C31        153.8710   176.0670   150.6770 ca         1 YG7      -0.056000
     24 C32        161.0740   161.8510   153.0040 c          1 YG7       0.648300
     25 C33        155.1910   176.3380   148.6040 cg         1 YG7       0.331000
     26 N03        154.0220   168.3990   149.2810 n3         1 YG7      -0.715600
     27 N04        155.7390   166.0380   149.9530 nh         1 YG7      -0.785400
     28 N05        151.2130   173.5350   151.3620 na         1 YG7      -0.218700
     29 N06        161.1120   160.5080   152.8660 nt         1 YG7      -0.597000
     30 N07        156.0080   176.8960   147.9830 n1         1 YG7      -0.468000
     31 O01        158.9800   161.8390   151.6020 os         1 YG7      -0.178200
     32 O02        161.9330   162.4310   153.6490 o          1 YG7      -0.594100
     33 H1         154.1170   166.3710   151.2980 h1         1 YG7       0.044450
     34 H2         153.8460   165.0410   150.1660 h1         1 YG7       0.044450
     35 H3         151.8390   169.9950   149.9120 hc         1 YG7       0.046200
     36 H4         151.2390   168.6910   148.8990 hc         1 YG7       0.046200
     37 H5         150.0910   171.8560   150.5190 h4         1 YG7       0.215000
     38 H6         156.6850   161.4990   150.0250 ha         1 YG7       0.130000
     39 H7         160.2390   164.6730   152.7900 ha         1 YG7       0.229000
     40 H8         152.6340   175.7110   152.4350 ha         1 YG7       0.120000
     41 H9         152.4240   167.0110   149.6660 h1         1 YG7       0.040200
     42 H10        153.4630   166.5780   148.3050 h1         1 YG7       0.040200
     43 H11        155.5720   167.9780   147.8720 h1         1 YG7       0.040200
     44 H12        155.9070   169.3510   148.9300 h1         1 YG7       0.040200
     45 H13        157.3370   167.3720   149.4430 h1         1 YG7       0.044450
     46 H14        156.3660   167.8810   150.8370 h1         1 YG7       0.044450
     47 H15        153.2250   168.9430   147.3870 h1         1 YG7       0.032700
     48 H16        153.7970   170.2890   148.3750 h1         1 YG7       0.032700
     49 H17        150.0030   170.6880   148.3280 hc         1 YG7       0.038700
     50 H18        150.9990   170.2200   146.9630 hc         1 YG7       0.038700
     51 H19        152.6450   172.0090   147.4930 hc         1 YG7       0.047200
     52 H20        151.0420   172.6380   147.2010 hc         1 YG7       0.047200
     53 H21        158.0040   166.1210   151.4830 ha         1 YG7       0.124000
     54 H22        155.3040   163.4750   149.3330 ha         1 YG7       0.121000
     55 H23        153.7110   174.2290   147.7680 ha         1 YG7       0.125000
     56 H24        154.4000   176.9070   151.1240 ha         1 YG7       0.124000
     57 H28        150.8030   173.6220   152.2870 hn         1 YG7       0.354000
     58 H29        161.8580   159.9860   153.3010 hn         1 YG7       0.323500
     59 H30        160.3950   160.0430   152.3300 hn         1 YG7       0.323500
     60 C12        153.2600   169.3320   148.4130 c3         1 YG7       0.167800
@<TRIPOS>BOND
     1     1    11 1   
     2     1    27 1   
     3     1    33 1   
     4     1    34 1   
     5     2    14 1   
     6     2    35 1   
     7     2    36 1   
     8     2    60 1   
     9     3    16 ar  
    10     3    17 ar  
    11     3    27 1   
    12     4     5 1   
    13     4     7 2   
    14     4    15 1   
    15     5    19 ar  
    16     5    20 ar  
    17     6     9 1   
    18     6    16 ar  
    19     6    18 ar  
    20     7    28 1   
    21     7    37 1   
    22     8    17 ar  
    23     8    18 ar  
    24     8    38 1   
    25     9    21 2   
    26     9    39 1   
    27    10    19 ar  
    28    10    23 ar  
    29    10    40 1   
    30    11    26 1   
    31    11    41 1   
    32    11    42 1   
    33    12    13 1   
    34    12    26 1   
    35    12    43 1   
    36    12    44 1   
    37    13    27 1   
    38    13    45 1   
    39    13    46 1   
    40    14    15 1   
    41    14    49 1   
    42    14    50 1   
    43    15    51 1   
    44    15    52 1   
    45    16    53 1   
    46    17    54 1   
    47    18    31 1   
    48    19    28 1   
    49    20    22 ar  
    50    20    55 1   
    51    21    24 1   
    52    21    31 1   
    53    22    23 ar  
    54    22    25 1   
    55    23    56 1   
    56    24    29 1   
    57    24    32 2   
    58    25    30 3   
    59    26    60 1   
    60    28    57 1   
    61    29    58 1   
    62    29    59 1   
    63    47    60 1   
    64    48    60 1   
@<TRIPOS>SUBSTRUCTURE
     1 YG7         1 TEMP              0 ****  ****    0 ROOT
