@<TRIPOS>MOLECULE
YG8
   63    67     1     0     0
SMALL
abcg2


@<TRIPOS>ATOM
      1 C11          9.4110    -4.1400    17.3530 c5         1 YG8       0.138300
      2 C10         10.7300    -4.8030    17.7490 c5         1 YG8       0.318300
      3 C3          12.6310    -4.9800    22.1880 ca         1 YG8       0.433900
      4 C4          12.1310    -4.3620    21.0270 ca         1 YG8      -0.086600
      5 C8          11.4950    -3.1050    19.4530 cc         1 YG8       0.462700
      6 C5          11.6500    -5.2080    20.0400 ca         1 YG8       0.118500
      7 C1          12.1080    -7.0010    21.2220 ca         1 YG8       0.149900
      8 C12          9.4930    -4.1880    15.8260 c5         1 YG8       0.107300
      9 C13         10.9960    -3.9780    15.5860 c5         1 YG8       0.128300
     10 C15         11.4050    -2.5490    15.3060 c3         1 YG8       0.210600
     11 C25          8.5430     2.5010    14.4920 c3         1 YG8       0.212600
     12 C26          9.1710     3.8870    14.4130 c5         1 YG8       0.153300
     13 C27         10.6680     3.9230    14.6930 c5         1 YG8       0.150300
     14 C28         10.6830     4.0390    16.2120 c5         1 YG8       0.088300
     15 C29          9.4800     4.9600    16.4560 c5         1 YG8       0.269300
     16 C32          8.5520     3.6090    18.3680 cc         1 YG8       0.431400
     17 C34          7.6960     5.1640    19.5470 cd         1 YG8       0.203900
     18 C35          8.2820     5.7780    18.4820 cc         1 YG8      -0.247000
     19 N2          12.6030    -6.3160    22.2490 nb         1 YG8      -0.327000
     20 N31          8.8370     4.7740    17.7340 na         1 YG8      -0.180500
     21 N33          7.8710     3.8090    19.4640 nd         1 YG8      -0.697000
     22 N40         13.1220    -4.2910    23.2200 nv         1 YG8      -1.081900
     23 N6          11.6140    -6.5380    20.0870 nb         1 YG8      -0.201000
     24 N7          11.2340    -4.3840    19.0320 na         1 YG8      -0.273300
     25 N9          12.0240    -3.0510    20.6380 nd         1 YG8      -0.589100
     26 O14         11.6550    -4.4720    16.7550 os         1 YG8      -0.458000
     27 O16         10.9750    -1.7110    16.3560 os         1 YG8      -0.617400
     28 O18         10.1470     0.3930    17.4000 o          1 YG8      -0.850500
     29 O19         11.7280     0.5160    15.3170 o          1 YG8      -0.850500
     30 O20          9.2820    -0.3270    15.1350 os         1 YG8      -0.742800
     31 O22          7.4700    -0.2380    13.4300 o          1 YG8      -0.844000
     32 O23          9.9430    -0.5210    12.6300 o          1 YG8      -0.844000
     33 O24          9.1830     1.6730    13.5520 os         1 YG8      -0.602400
     34 O30          8.5710     4.7100    15.4140 os         1 YG8      -0.470000
     35 O36         11.8930     4.5590    16.6740 oh         1 YG8      -0.719000
     36 O37         11.1920     5.0750    14.0780 oh         1 YG8      -0.739000
     37 O38          9.0640    -5.4590    15.4100 oh         1 YG8      -0.724000
     38 O39          8.3540    -4.8270    17.9480 oh         1 YG8      -0.709000
     39 P17         10.6140    -0.1320    16.0770 p5         1 YG8       1.466800
     40 P21          8.9310     0.0480    13.5700 p5         1 YG8       1.476800
     41 H11          9.4250    -3.0870    17.6530 h1         1 YG8       0.101700
     42 H10         10.5930    -5.8880    17.8220 h2         1 YG8       0.095700
     43 H8          11.2770    -2.2480    18.8330 h5         1 YG8       0.124800
     44 H1          12.1150    -8.0800    21.3350 h5         1 YG8       0.025100
     45 H12          8.9000    -3.3910    15.3590 h1         1 YG8       0.100700
     46 H13         11.3210    -4.5740    14.7250 h1         1 YG8       0.046700
     47 H15A        12.4940    -2.4980    15.1970 h1         1 YG8       0.050200
     48 H15B        10.9700    -2.2620    14.3430 h1         1 YG8       0.050200
     49 H25B         7.4700     2.5880    14.2860 h1         1 YG8       0.032200
     50 H25A         8.6400     2.1090    15.5100 h1         1 YG8       0.032200
     51 H26          8.9610     4.3220    13.4310 h1         1 YG8       0.081700
     52 H27         11.1770     3.0140    14.3600 h1         1 YG8       0.140700
     53 H28         10.4970     3.0410    16.6250 h1         1 YG8       0.109700
     54 H29          9.8100     6.0030    16.4290 h2         1 YG8       0.060700
     55 H32          8.8700     2.6430    18.0020 h5         1 YG8       0.113100
     56 H34          7.1650     5.6220    20.3670 h4         1 YG8       0.011100
     57 H35          8.3580     6.8140    18.1950 h4         1 YG8       0.137000
     58 H40B        13.5220    -4.7750    24.0060 hn         1 YG8       0.495500
     59 H40A        13.2090    -3.2910    23.1820 hn         1 YG8       0.495500
     60 H36         11.9540     4.4200    17.6240 ho         1 YG8       0.512000
     61 H37         12.1080     5.1780    14.3570 ho         1 YG8       0.508000
     62 H38          9.1340    -5.5050    14.4510 ho         1 YG8       0.497000
     63 H39          7.5560    -4.2960    17.8660 ho         1 YG8       0.513000
@<TRIPOS>BOND
     1     1     2 1   
     2     1     8 1   
     3     1    38 1   
     4     1    41 1   
     5     2    24 1   
     6     2    26 1   
     7     2    42 1   
     8     3     4 ar  
     9     3    19 ar  
    10     3    22 1   
    11     4     6 ar  
    12     4    25 1   
    13     5    24 1   
    14     5    25 2   
    15     5    43 1   
    16     6    23 ar  
    17     6    24 1   
    18     7    19 ar  
    19     7    23 ar  
    20     7    44 1   
    21     8     9 1   
    22     8    37 1   
    23     8    45 1   
    24     9    10 1   
    25     9    26 1   
    26     9    46 1   
    27    10    27 1   
    28    10    47 1   
    29    10    48 1   
    30    11    12 1   
    31    11    33 1   
    32    11    49 1   
    33    11    50 1   
    34    12    13 1   
    35    12    34 1   
    36    12    51 1   
    37    13    14 1   
    38    13    36 1   
    39    13    52 1   
    40    14    15 1   
    41    14    35 1   
    42    14    53 1   
    43    15    20 1   
    44    15    34 1   
    45    15    54 1   
    46    16    20 1   
    47    16    21 2   
    48    16    55 1   
    49    17    18 2   
    50    17    21 1   
    51    17    56 1   
    52    18    20 1   
    53    18    57 1   
    54    22    58 1   
    55    22    59 1   
    56    27    39 1   
    57    28    39 1   
    58    29    39 1   
    59    30    39 1   
    60    30    40 1   
    61    31    40 1   
    62    32    40 1   
    63    33    40 1   
    64    35    60 1   
    65    36    61 1   
    66    37    62 1   
    67    38    63 1   
@<TRIPOS>SUBSTRUCTURE
     1 YG8         1 TEMP              0 ****  ****    0 ROOT
