@<TRIPOS>MOLECULE
YG8
   63    67     1     0     0
SMALL
No Charge or Current Charge


@<TRIPOS>ATOM
      1 C11          9.1360    -3.5670    16.9190 c5         1 YG8       0.138300
      2 C10         10.1860    -4.4200    17.7240 c5         1 YG8       0.318300
      3 C3          12.2020    -3.9690    22.1330 ca         1 YG8       0.433900
      4 C4          11.6990    -3.5490    20.8830 ca         1 YG8      -0.086600
      5 C8          11.0530    -2.4680    19.1330 cc         1 YG8       0.462700
      6 C5          11.2220    -4.5060    20.0240 ca         1 YG8       0.118500
      7 C1          11.7240    -6.1310    21.5550 ca         1 YG8       0.149900
      8 C12          9.3560    -4.1030    15.4760 c5         1 YG8       0.107300
      9 C13         10.9080    -4.3190    15.4690 c5         1 YG8       0.128300
     10 C15         11.8000    -3.0810    15.1220 c3         1 YG8       0.210600
     11 C25          8.6800     2.1040    14.9060 c3         1 YG8       0.212600
     12 C26          8.8940     3.6420    14.7750 c5         1 YG8       0.153300
     13 C27         10.3870     4.1120    14.6880 c5         1 YG8       0.150300
     14 C28         10.7960     4.0220    16.1850 c5         1 YG8       0.088300
     15 C29          9.4880     4.5450    16.8860 c5         1 YG8       0.269300
     16 C32          9.3730     2.7320    18.6760 cc         1 YG8       0.431400
     17 C34          8.5340     3.8670    20.3120 cd         1 YG8       0.203900
     18 C35          8.6310     4.7430    19.2640 cc         1 YG8      -0.247000
     19 N2          12.2200    -5.2670    22.4740 nb         1 YG8      -0.327000
     20 N31          9.1560     4.0160    18.2140 na         1 YG8      -0.180500
     21 N33          8.9950     2.6220    19.9460 nd         1 YG8      -0.697000
     22 N40         12.7030    -3.1050    23.0560 nv         1 YG8      -1.081900
     23 N6          11.2200    -5.8180    20.3370 nb         1 YG8      -0.201000
     24 N7          10.8060    -3.8290    18.9120 na         1 YG8      -0.273300
     25 N9          11.6050    -2.2600    20.3470 nd         1 YG8      -0.589100
     26 O14         11.2210    -4.8240    16.7930 os         1 YG8      -0.458000
     27 O16         11.5410    -1.9840    16.0130 os         1 YG8      -0.617400
     28 O18         11.1730     0.4540    16.5280 o          1 YG8      -0.850500
     29 O19         12.2390    -0.1750    14.3770 o          1 YG8      -0.850500
     30 O20          9.7760    -0.8700    14.8940 os         1 YG8      -0.742800
     31 O22          7.8120    -0.3380    13.4270 o          1 YG8      -0.844000
     32 O23         10.0080    -0.5350    12.3790 o          1 YG8      -0.844000
     33 O24          9.5590     1.4260    13.9970 os         1 YG8      -0.602400
     34 O30          8.3920     4.3010    15.9700 os         1 YG8      -0.470000
     35 O36         11.9650     4.8330    16.4500 oh         1 YG8      -0.719000
     36 O37         10.5350     5.4680    14.2290 oh         1 YG8      -0.739000
     37 O38          8.6160    -5.3330    15.2880 oh         1 YG8      -0.724000
     38 O39          7.7750    -3.8110    17.3050 oh         1 YG8      -0.709000
     39 P17         11.2240    -0.5270    15.4090 p5         1 YG8       1.466800
     40 P21          9.2760    -0.1120    13.6080 p5         1 YG8       1.476800
     41 H11          9.3600    -2.4950    16.9730 h1         1 YG8       0.101700
     42 H10          9.6840    -5.3270    18.0810 h2         1 YG8       0.095700
     43 H8          10.8160    -1.6990    18.4070 h5         1 YG8       0.124800
     44 H1          11.7310    -7.1860    21.8220 h5         1 YG8       0.025100
     45 H12          9.0590    -3.3550    14.7250 h1         1 YG8       0.100700
     46 H13         11.1760    -5.0990    14.7430 h1         1 YG8       0.046700
     47 H15A        12.8540    -3.3800    15.1880 h1         1 YG8       0.050200
     48 H15B        11.6050    -2.8050    14.0770 h1         1 YG8       0.050200
     49 H25B         7.6270     1.8850    14.6890 h1         1 YG8       0.032200
     50 H25A         8.8830     1.7880    15.9350 h1         1 YG8       0.032200
     51 H26          8.3230     3.9880    13.9040 h1         1 YG8       0.081700
     52 H27         10.9910     3.4250    14.0740 h1         1 YG8       0.140700
     53 H28         10.9860     2.9720    16.4460 h1         1 YG8       0.109700
     54 H29          9.5740     5.6300    17.0230 h2         1 YG8       0.060700
     55 H32          9.7900     1.9440    18.0600 h5         1 YG8       0.113100
     56 H34          8.1610     4.0640    21.3090 h4         1 YG8       0.011100
     57 H35          8.3700     5.7920    19.1920 h4         1 YG8       0.137000
     58 H40B        13.3020    -3.4820    23.7860 hn         1 YG8       0.495500
     59 H40A        12.9000    -2.1580    22.7430 hn         1 YG8       0.495500
     60 H36         12.2810     4.6200    17.3620 ho         1 YG8       0.512000
     61 H37         11.2400     5.8240    14.8270 ho         1 YG8       0.508000
     62 H38          8.8450    -5.6860    14.3960 ho         1 YG8       0.497000
     63 H39          7.5160    -4.5490    16.6950 ho         1 YG8       0.513000
@<TRIPOS>BOND
     1     1     2 1   
     2     1     8 1   
     3     1    38 1   
     4     1    41 1   
     5     2    24 1   
     6     2    26 1   
     7     2    42 1   
     8     3     4 ar  
     9     3    19 ar  
    10     3    22 1   
    11     4     6 ar  
    12     4    25 1   
    13     5    24 1   
    14     5    25 2   
    15     5    43 1   
    16     6    23 ar  
    17     6    24 1   
    18     7    19 ar  
    19     7    23 ar  
    20     7    44 1   
    21     8     9 1   
    22     8    37 1   
    23     8    45 1   
    24     9    10 1   
    25     9    26 1   
    26     9    46 1   
    27    10    27 1   
    28    10    47 1   
    29    10    48 1   
    30    11    12 1   
    31    11    33 1   
    32    11    49 1   
    33    11    50 1   
    34    12    13 1   
    35    12    34 1   
    36    12    51 1   
    37    13    14 1   
    38    13    36 1   
    39    13    52 1   
    40    14    15 1   
    41    14    35 1   
    42    14    53 1   
    43    15    20 1   
    44    15    34 1   
    45    15    54 1   
    46    16    20 1   
    47    16    21 2   
    48    16    55 1   
    49    17    18 2   
    50    17    21 1   
    51    17    56 1   
    52    18    20 1   
    53    18    57 1   
    54    22    58 1   
    55    22    59 1   
    56    27    39 1   
    57    28    39 1   
    58    29    39 1   
    59    30    39 1   
    60    30    40 1   
    61    31    40 1   
    62    32    40 1   
    63    33    40 1   
    64    35    60 1   
    65    36    61 1   
    66    37    62 1   
    67    38    63 1   
@<TRIPOS>SUBSTRUCTURE
     1 YG8         1 TEMP              0 ****  ****    0 ROOT
