@<TRIPOS>MOLECULE
YG9
   34    35     1     0     0
SMALL
abcg2


@<TRIPOS>ATOM
      1 C10         -7.4230   -10.4300    -8.6280 c3         1 YG9      -0.094100
      2 C15         -5.0880   -11.3510    -8.6560 c          1 YG9       0.563000
      3 C17         -4.5320    -7.8790   -12.9130 ca         1 YG9      -0.070000
      4 C01         -3.4050    -4.1290   -14.4820 c3         1 YG9       0.148900
      5 C03         -3.3120    -5.8070   -12.7780 ca         1 YG9       0.136100
      6 C04         -2.8030    -6.2100   -11.5410 ca         1 YG9      -0.166000
      7 C05         -3.1650    -7.4360   -11.0060 ca         1 YG9      -0.070000
      8 C06         -4.0370    -8.2960   -11.6820 ca         1 YG9      -0.122300
      9 C07         -4.4640    -9.6040   -11.0680 c3         1 YG9      -0.023100
     10 C08         -5.7030    -9.4310   -10.1820 c3         1 YG9      -0.073400
     11 C09         -6.2000   -10.7160    -9.5040 c5         1 YG9       0.037400
     12 C12         -5.7100   -12.8920   -10.2550 c          1 YG9       0.616000
     13 C18         -4.1830    -6.6490   -13.4680 ca         1 YG9      -0.166000
     14 N11         -6.4600   -11.7900   -10.4580 ns         1 YG9      -0.524900
     15 N14         -4.8800   -12.6020    -9.1590 ns         1 YG9      -0.484500
     16 O13         -5.7130   -13.9470   -10.8670 o          1 YG9      -0.549000
     17 O16         -4.5100   -10.8360    -7.7210 o          1 YG9      -0.506000
     18 H102        -7.7740   -11.3430    -8.1460 hc         1 YG9       0.055367
     19 H101        -7.1670    -9.6980    -7.8620 hc         1 YG9       0.055367
     20 H103        -8.2260   -10.0250    -9.2460 hc         1 YG9       0.055367
     21 H171        -5.2090    -8.5250   -13.4610 ha         1 YG9       0.113500
     22 H012        -2.9580    -3.1520   -14.6450 h1         1 YG9       0.041700
     23 H011        -3.1160    -4.8030   -15.2920 h1         1 YG9       0.041700
     24 H013        -4.4930    -4.0360   -14.4570 h1         1 YG9       0.041700
     25 H041        -2.1230    -5.5520   -11.0140 ha         1 YG9       0.123000
     26 H051        -2.7610    -7.7350   -10.0450 ha         1 YG9       0.113500
     27 H072        -3.6420   -10.0090   -10.4740 hc         1 YG9       0.052700
     28 H071        -4.6810   -10.3280   -11.8560 hc         1 YG9       0.052700
     29 H082        -5.4930    -8.7050    -9.3940 hc         1 YG9       0.061700
     30 H081        -6.5270    -9.0290   -10.7770 hc         1 YG9       0.061700
     31 H181        -4.5880    -6.3650   -14.4280 ha         1 YG9       0.123000
     32 H111        -7.1630   -11.7460   -11.1770 hn         1 YG9       0.349500
     33 H141        -4.2060   -13.2620    -8.7990 hn         1 YG9       0.356500
     34 O02         -2.9010    -4.5870   -13.2290 os         1 YG9      -0.350100
@<TRIPOS>BOND
     1     1    11 1   
     2     1    18 1   
     3     1    19 1   
     4     1    20 1   
     5     2    11 1   
     6     2    15 1   
     7     2    17 2   
     8     3     8 ar  
     9     3    13 ar  
    10     3    21 1   
    11     4    22 1   
    12     4    23 1   
    13     4    24 1   
    14     4    34 1   
    15     5     6 ar  
    16     5    13 ar  
    17     5    34 1   
    18     6     7 ar  
    19     6    25 1   
    20     7     8 ar  
    21     7    26 1   
    22     8     9 1   
    23     9    10 1   
    24     9    27 1   
    25     9    28 1   
    26    10    11 1   
    27    10    29 1   
    28    10    30 1   
    29    11    14 1   
    30    12    14 1   
    31    12    15 1   
    32    12    16 2   
    33    13    31 1   
    34    14    32 1   
    35    15    33 1   
@<TRIPOS>SUBSTRUCTURE
     1 YG9         1 TEMP              0 ****  ****    0 ROOT
