@<TRIPOS>MOLECULE
YG9
   34    35     1     0     0
SMALL
No Charge or Current Charge


@<TRIPOS>ATOM
      1 C10         -7.4710   -10.4640    -8.6160 c3         1 YG9      -0.094100
      2 C15         -5.0900   -11.4060    -8.5860 c          1 YG9       0.563000
      3 C17         -4.5800    -7.8500   -12.9070 ca         1 YG9      -0.070000
      4 C01         -3.3560    -4.0520   -14.5510 c3         1 YG9       0.148900
      5 C03         -3.2850    -5.7840   -12.7930 ca         1 YG9       0.136100
      6 C04         -2.7590    -6.1950   -11.5580 ca         1 YG9      -0.166000
      7 C05         -3.1380    -7.4260   -10.9960 ca         1 YG9      -0.070000
      8 C06         -4.0500    -8.2610   -11.6690 ca         1 YG9      -0.122300
      9 C07         -4.4660    -9.5920   -11.0590 c3         1 YG9      -0.023100
     10 C08         -5.7130    -9.4450   -10.1520 c3         1 YG9      -0.073400
     11 C09         -6.2130   -10.7510    -9.4700 c5         1 YG9       0.037400
     12 C12         -5.6730   -12.9230   -10.2180 c          1 YG9       0.616000
     13 C18         -4.2020    -6.6180   -13.4690 ca         1 YG9      -0.166000
     14 N11         -6.4650   -11.8390   -10.4450 ns         1 YG9      -0.524900
     15 N14         -4.9200   -12.6170    -9.1580 ns         1 YG9      -0.484500
     16 O13         -5.6560   -13.9600   -10.8510 o          1 YG9      -0.549000
     17 O16         -4.4770   -10.9840    -7.6170 o          1 YG9      -0.506000
     18 H102        -7.8280   -11.3750    -8.1190 hc         1 YG9       0.055367
     19 H101        -7.2630    -9.7210    -7.8370 hc         1 YG9       0.055367
     20 H103        -8.2920   -10.0810    -9.2340 hc         1 YG9       0.055367
     21 H171        -5.2890    -8.4850   -13.4340 ha         1 YG9       0.113500
     22 H012        -2.9060    -3.0740   -14.7590 h1         1 YG9       0.041700
     23 H011        -3.0940    -4.7290   -15.3740 h1         1 YG9       0.041700
     24 H013        -4.4460    -3.9270   -14.5300 h1         1 YG9       0.041700
     25 H041        -2.0540    -5.5550   -11.0330 ha         1 YG9       0.123000
     26 H051        -2.7240    -7.7300   -10.0360 ha         1 YG9       0.113500
     27 H072        -3.6350   -10.0100   -10.4790 hc         1 YG9       0.052700
     28 H071        -4.6760   -10.3170   -11.8560 hc         1 YG9       0.052700
     29 H082        -5.4880    -8.6970    -9.3810 hc         1 YG9       0.061700
     30 H081        -6.5240    -9.0200   -10.7570 hc         1 YG9       0.061700
     31 H181        -4.6290    -6.3300   -14.4260 ha         1 YG9       0.123000
     32 H111        -7.1310   -11.8490   -11.2100 hn         1 YG9       0.349500
     33 H141        -4.2470   -13.2740    -8.7960 hn         1 YG9       0.356500
     34 O02         -2.8760    -4.5650   -13.2940 os         1 YG9      -0.350100
@<TRIPOS>BOND
     1     1    11 1   
     2     1    18 1   
     3     1    19 1   
     4     1    20 1   
     5     2    11 1   
     6     2    15 1   
     7     2    17 2   
     8     3     8 ar  
     9     3    13 ar  
    10     3    21 1   
    11     4    22 1   
    12     4    23 1   
    13     4    24 1   
    14     4    34 1   
    15     5     6 ar  
    16     5    13 ar  
    17     5    34 1   
    18     6     7 ar  
    19     6    25 1   
    20     7     8 ar  
    21     7    26 1   
    22     8     9 1   
    23     9    10 1   
    24     9    27 1   
    25     9    28 1   
    26    10    11 1   
    27    10    29 1   
    28    10    30 1   
    29    11    14 1   
    30    12    14 1   
    31    12    15 1   
    32    12    16 2   
    33    13    31 1   
    34    14    32 1   
    35    15    33 1   
@<TRIPOS>SUBSTRUCTURE
     1 YG9         1 TEMP              0 ****  ****    0 ROOT
