@<TRIPOS>MOLECULE
YGG
   25    26     1     0     0
SMALL
No Charge or Current Charge


@<TRIPOS>ATOM
      1 N12        -34.0190    23.7040   -12.9550 na         1 YGG       0.017800
      2 C13        -37.4400    24.3960   -12.8540 ca         1 YGG      -0.105000
      3 C01        -38.1800    26.6710   -13.3000 ca         1 YGG      -0.106000
      4 C02        -37.8770    27.0260   -11.9750 ca         1 YGG      -0.106000
      5 C03        -37.3530    26.0670   -11.0910 ca         1 YGG      -0.105000
      6 C04        -37.1180    24.7460   -11.5270 ca         1 YGG      -0.078300
      7 C05        -36.5480    23.6830   -10.5850 c3         1 YGG      -0.030100
      8 C06        -35.4290    24.1730    -9.6340 c3         1 YGG       0.052600
      9 C08        -33.5280    23.8440   -11.6880 cc         1 YGG      -0.250000
     10 C09        -32.3150    23.2280   -11.6670 cd         1 YGG       0.238900
     11 C14        -37.9650    25.3550   -13.7380 ca         1 YGG      -0.106000
     12 N10        -32.1680    22.6030   -12.8960 nd         1 YGG      -0.366000
     13 N11        -33.1900    22.8910   -13.6750 nc         1 YGG      -0.188800
     14 S07        -34.0500    25.0430   -10.5150 ss         1 YGG      -0.126000
     15 H1         -34.8560    24.1150   -13.3580 hn         1 YGG       0.384000
     16 H3         -38.5880    27.4130   -13.9830 ha         1 YGG       0.115000
     17 H4         -38.0510    28.0430   -11.6320 ha         1 YGG       0.113500
     18 H5         -37.1320    26.3590   -10.0680 ha         1 YGG       0.105500
     19 H6         -37.3600    23.2700    -9.9740 hc         1 YGG       0.056200
     20 H7         -36.1570    22.8370   -11.1640 hc         1 YGG       0.056200
     21 H8         -35.0110    23.3120    -9.0960 h1         1 YGG       0.076700
     22 H9         -35.8490    24.8580    -8.8880 h1         1 YGG       0.076700
     23 H10        -31.5620    23.1990   -10.8890 h4         1 YGG       0.055100
     24 H11        -38.2080    25.0760   -14.7610 ha         1 YGG       0.113500
     25 H2         -37.2890    23.3770   -13.2040 ha         1 YGG       0.105500
@<TRIPOS>BOND
     1     1     9 1   
     2     1    13 1   
     3     1    15 1   
     4     2     6 ar  
     5     2    11 ar  
     6     2    25 1   
     7     3     4 ar  
     8     3    11 ar  
     9     3    16 1   
    10     4     5 ar  
    11     4    17 1   
    12     5     6 ar  
    13     5    18 1   
    14     6     7 1   
    15     7     8 1   
    16     7    19 1   
    17     7    20 1   
    18     8    14 1   
    19     8    21 1   
    20     8    22 1   
    21     9    10 2   
    22     9    14 1   
    23    10    12 1   
    24    10    23 1   
    25    11    24 1   
    26    12    13 2   
@<TRIPOS>SUBSTRUCTURE
     1 YGG         1 TEMP              0 ****  ****    0 ROOT
