@<TRIPOS>MOLECULE
YGG
   25    26     1     0     0
SMALL
abcg2


@<TRIPOS>ATOM
      1 N12        -33.5880    23.3020   -13.1360 na         1 YGG       0.017800
      2 C13        -37.2080    24.7660   -12.9120 ca         1 YGG      -0.105000
      3 C01        -38.5940    26.7260   -13.0750 ca         1 YGG      -0.106000
      4 C02        -38.5540    26.8560   -11.6920 ca         1 YGG      -0.106000
      5 C03        -37.8420    25.9430   -10.9270 ca         1 YGG      -0.105000
      6 C04        -37.1570    24.8870   -11.5270 ca         1 YGG      -0.078300
      7 C05        -36.3720    23.9190   -10.6880 c3         1 YGG      -0.030100
      8 C06        -35.1510    24.5420   -10.0240 c3         1 YGG       0.052600
      9 C08        -33.3020    23.7310   -11.8910 cc         1 YGG      -0.250000
     10 C09        -32.4340    22.7720   -11.4250 cd         1 YGG       0.238900
     11 C14        -37.9200    25.6760   -13.6830 ca         1 YGG      -0.106000
     12 N10        -32.2630    21.8490   -12.3900 nd         1 YGG      -0.366000
     13 N11        -32.9610    22.1850   -13.4250 nc         1 YGG      -0.188800
     14 S07        -33.9160    25.2030   -11.1940 ss         1 YGG      -0.126000
     15 H1         -34.1910    23.7390   -13.8200 hn         1 YGG       0.384000
     16 H3         -39.1490    27.4370   -13.6730 ha         1 YGG       0.115000
     17 H4         -39.0810    27.6680   -11.2080 ha         1 YGG       0.113500
     18 H5         -37.8210    26.0520    -9.8480 ha         1 YGG       0.105500
     19 H6         -37.0040    23.5240    -9.8870 hc         1 YGG       0.056200
     20 H7         -36.0650    23.0590   -11.2870 hc         1 YGG       0.056200
     21 H8         -34.6560    23.8280    -9.3670 h1         1 YGG       0.076700
     22 H9         -35.4310    25.4040    -9.4170 h1         1 YGG       0.076700
     23 H10        -31.9460    22.7120   -10.4660 h4         1 YGG       0.055100
     24 H11        -37.9470    25.5640   -14.7600 ha         1 YGG       0.113500
     25 H2         -36.6900    23.9450   -13.3940 ha         1 YGG       0.105500
@<TRIPOS>BOND
     1     1     9 1   
     2     1    13 1   
     3     1    15 1   
     4     2     6 ar  
     5     2    11 ar  
     6     2    25 1   
     7     3     4 ar  
     8     3    11 ar  
     9     3    16 1   
    10     4     5 ar  
    11     4    17 1   
    12     5     6 ar  
    13     5    18 1   
    14     6     7 1   
    15     7     8 1   
    16     7    19 1   
    17     7    20 1   
    18     8    14 1   
    19     8    21 1   
    20     8    22 1   
    21     9    10 2   
    22     9    14 1   
    23    10    12 1   
    24    10    23 1   
    25    11    24 1   
    26    12    13 2   
@<TRIPOS>SUBSTRUCTURE
     1 YGG         1 TEMP              0 ****  ****    0 ROOT
