@<TRIPOS>MOLECULE
YGH
   38    40     1     0     0
SMALL
No Charge or Current Charge


@<TRIPOS>ATOM
      1 C1         122.8550   128.1940   115.1610 ca         1 YGH      -0.056200
      2 C2         123.1640   129.2060   114.2970 ca         1 YGH      -0.101800
      3 C3         122.3900   129.4430   113.1450 ca         1 YGH       0.178000
      4 C10        124.3400   129.8660   114.8070 cc         1 YGH      -0.127400
      5 C11        125.0490   131.0600   114.2190 c3         1 YGH      -0.002200
      6 C12        124.2880   132.3850   114.4590 c3         1 YGH       0.171800
      7 C14        124.3030   134.8690   114.2510 c5         1 YGH       0.157800
      8 C15        125.2170   135.8810   113.5140 c5         1 YGH      -0.079900
      9 C16        125.1260   133.6620   112.4650 c5         1 YGH       0.157800
     10 C18        125.7190   135.0840   112.2680 c5         1 YGH      -0.079900
     11 C4         121.2680   128.6150   112.8940 ca         1 YGH       0.064100
     12 C5         120.9540   127.5680   113.8060 ca         1 YGH      -0.144000
     13 C6         121.7550   127.3540   114.9480 ca         1 YGH      -0.111000
     14 C8         119.3530   128.0610   111.4270 c3         1 YGH       0.149900
     15 C9         124.6810   129.1900   115.9740 cd         1 YGH      -0.152100
     16 F1         122.7110   130.4380   112.2840 f          1 YGH      -0.167000
     17 N1         123.7580   128.1430   116.2060 na         1 YGH      -0.221700
     18 N13        124.9720   133.5920   113.9350 n3         1 YGH      -0.720600
     19 O7         120.5080   128.8520   111.7610 os         1 YGH      -0.330100
     20 H1         126.0510   131.1460   114.6560 hc         1 YGH       0.054200
     21 H2         125.1930   130.9030   113.1450 hc         1 YGH       0.054200
     22 H3         124.1460   132.4940   115.5420 h1         1 YGH       0.033700
     23 H4         123.2870   132.3040   114.0150 h1         1 YGH       0.033700
     24 H5         124.2550   135.0660   115.3310 h1         1 YGH       0.036200
     25 H6         123.2780   134.8940   113.8520 h1         1 YGH       0.036200
     26 H7         126.0580   136.1810   114.1490 hc         1 YGH       0.044450
     27 H8         124.6760   136.7940   113.2400 hc         1 YGH       0.044450
     28 H9         124.1540   133.5680   111.9600 h1         1 YGH       0.036200
     29 H10        125.7930   132.8850   112.0680 h1         1 YGH       0.036200
     30 H11        126.8150   135.0540   112.2420 hc         1 YGH       0.044450
     31 H12        125.3860   135.5300   111.3250 hc         1 YGH       0.044450
     32 H13        120.1010   126.9150   113.6430 ha         1 YGH       0.118000
     33 H14        121.5220   126.5520   115.6460 ha         1 YGH       0.117000
     34 H15        118.9040   128.4200   110.4930 h1         1 YGH       0.038700
     35 H16        119.6280   127.0070   111.2890 h1         1 YGH       0.038700
     36 H17        118.5940   128.1270   112.2170 h1         1 YGH       0.038700
     37 H18        125.5060   129.3830   116.6560 h4         1 YGH       0.215000
     38 H19        123.7580   127.4880   116.9830 hn         1 YGH       0.352000
@<TRIPOS>BOND
     1     1     2 ar  
     2     1    13 ar  
     3     1    17 1   
     4     2     3 ar  
     5     2     4 1   
     6     3    11 ar  
     7     3    16 1   
     8     4     5 1   
     9     4    15 2   
    10     5     6 1   
    11     5    20 1   
    12     5    21 1   
    13     6    18 1   
    14     6    22 1   
    15     6    23 1   
    16     7     8 1   
    17     7    18 1   
    18     7    24 1   
    19     7    25 1   
    20     8    10 1   
    21     8    26 1   
    22     8    27 1   
    23     9    10 1   
    24     9    18 1   
    25     9    28 1   
    26     9    29 1   
    27    10    30 1   
    28    10    31 1   
    29    11    12 ar  
    30    11    19 1   
    31    12    13 ar  
    32    12    32 1   
    33    13    33 1   
    34    14    19 1   
    35    14    34 1   
    36    14    35 1   
    37    14    36 1   
    38    15    17 1   
    39    15    37 1   
    40    17    38 1   
@<TRIPOS>SUBSTRUCTURE
     1 YGH         1 TEMP              0 ****  ****    0 ROOT
