@<TRIPOS>MOLECULE
YGH
   38    40     1     0     0
SMALL
abcg2


@<TRIPOS>ATOM
      1 C1         122.7950   128.2320   115.1610 ca         1 YGH      -0.056200
      2 C2         123.1780   129.2510   114.2590 ca         1 YGH      -0.101800
      3 C3         122.4140   129.4160   113.1100 ca         1 YGH       0.178000
      4 C10        124.3460   129.8890   114.7970 cc         1 YGH      -0.127400
      5 C11        125.0920   131.0600   114.2460 c3         1 YGH      -0.002200
      6 C12        124.3480   132.3750   114.4860 c3         1 YGH       0.171800
      7 C14        124.4650   134.7870   114.3660 c5         1 YGH       0.157800
      8 C15        125.1560   135.8170   113.4740 c5         1 YGH      -0.079900
      9 C16        125.0500   133.5960   112.4930 c5         1 YGH       0.157800
     10 C18        125.5110   135.0260   112.1970 c5         1 YGH      -0.079900
     11 C4         121.3030   128.6300   112.8560 ca         1 YGH       0.064100
     12 C5         120.9500   127.6330   113.7810 ca         1 YGH      -0.144000
     13 C6         121.6880   127.4230   114.9320 ca         1 YGH      -0.111000
     14 C8         119.4980   128.1070   111.4090 c3         1 YGH       0.149900
     15 C9         124.6090   129.2370   115.9700 cd         1 YGH      -0.152100
     16 F1         122.7560   130.3590   112.2130 f          1 YGH      -0.167000
     17 N1         123.6920   128.2510   116.1890 na         1 YGH      -0.221700
     18 N13        125.0400   133.5220   113.9450 n3         1 YGH      -0.720600
     19 O7         120.6340   128.8890   111.7090 os         1 YGH      -0.330100
     20 H1         126.0740   131.1240   114.7210 hc         1 YGH       0.054200
     21 H2         125.2750   130.9190   113.1790 hc         1 YGH       0.054200
     22 H3         124.2440   132.5150   115.5660 h1         1 YGH       0.033700
     23 H4         123.3230   132.2990   114.0830 h1         1 YGH       0.033700
     24 H5         124.6330   134.9560   115.4320 h1         1 YGH       0.036200
     25 H6         123.3740   134.8130   114.1980 h1         1 YGH       0.036200
     26 H7         126.0580   136.1970   113.9550 hc         1 YGH       0.044450
     27 H8         124.5120   136.6720   113.2740 hc         1 YGH       0.044450
     28 H9         124.0410   133.4240   112.0790 h1         1 YGH       0.036200
     29 H10        125.7090   132.8450   112.0550 h1         1 YGH       0.036200
     30 H11        126.5840   135.0580   112.0070 hc         1 YGH       0.044450
     31 H12        125.0180   135.4220   111.3100 hc         1 YGH       0.044450
     32 H13        120.0880   127.0050   113.6020 ha         1 YGH       0.118000
     33 H14        121.4020   126.6470   115.6300 ha         1 YGH       0.117000
     34 H15        119.1150   128.4730   110.4590 h1         1 YGH       0.038700
     35 H16        119.7430   127.0470   111.3020 h1         1 YGH       0.038700
     36 H17        118.7140   128.2110   112.1650 h1         1 YGH       0.038700
     37 H18        125.4040   129.4150   116.6780 h4         1 YGH       0.215000
     38 H19        123.6820   127.6340   116.9850 hn         1 YGH       0.352000
@<TRIPOS>BOND
     1     1     2 ar  
     2     1    13 ar  
     3     1    17 1   
     4     2     3 ar  
     5     2     4 1   
     6     3    11 ar  
     7     3    16 1   
     8     4     5 1   
     9     4    15 2   
    10     5     6 1   
    11     5    20 1   
    12     5    21 1   
    13     6    18 1   
    14     6    22 1   
    15     6    23 1   
    16     7     8 1   
    17     7    18 1   
    18     7    24 1   
    19     7    25 1   
    20     8    10 1   
    21     8    26 1   
    22     8    27 1   
    23     9    10 1   
    24     9    18 1   
    25     9    28 1   
    26     9    29 1   
    27    10    30 1   
    28    10    31 1   
    29    11    12 ar  
    30    11    19 1   
    31    12    13 ar  
    32    12    32 1   
    33    13    33 1   
    34    14    19 1   
    35    14    34 1   
    36    14    35 1   
    37    14    36 1   
    38    15    17 1   
    39    15    37 1   
    40    17    38 1   
@<TRIPOS>SUBSTRUCTURE
     1 YGH         1 TEMP              0 ****  ****    0 ROOT
