@<TRIPOS>MOLECULE
YGI
   28    30     1     0     0
SMALL
abcg2


@<TRIPOS>ATOM
      1 C1          38.5010    -5.3210    14.1970 c          1 YGI       0.699000
      2 N1          38.9650    -5.9100    17.4670 na         1 YGI      -0.192300
      3 O1          37.6260    -6.1250    13.7940 o          1 YGI      -0.713000
      4 C2          38.0090    -3.9400    14.6750 c3         1 YGI      -0.047400
      5 N2          40.3670    -4.6560    18.6340 nc         1 YGI      -0.127000
      6 O2          39.7360    -5.5240    14.2820 o          1 YGI      -0.713000
      7 C3          38.6310    -4.5760    17.2970 cd         1 YGI       0.389700
      8 N3          39.4630    -3.8420    17.9980 nc         1 YGI      -0.344700
      9 C4          40.0670    -5.9030    18.3110 cd         1 YGI      -0.045000
     10 N4          38.8930    -8.2260    17.2510 nc         1 YGI      -0.680000
     11 C5          38.4140    -7.0640    16.9570 cd         1 YGI       0.608400
     12 C6          39.9740    -8.2660    18.0780 cc         1 YGI       0.381300
     13 C7          40.6220    -7.1670    18.6450 cd         1 YGI      -0.104800
     14 C8          41.9120    -8.8800    19.5120 cc         1 YGI      -0.111600
     15 C9          41.7370    -7.5220    19.4660 cd         1 YGI      -0.019400
     16 C10         42.9540    -9.6490    20.2620 c3         1 YGI      -0.012900
     17 C11         42.6000    -6.5290    20.1800 c3         1 YGI      -0.030900
     18 S1          37.2740    -4.0070    16.3590 ss         1 YGI      -0.315200
     19 S2          40.7330    -9.7410    18.5610 ss         1 YGI      -0.105900
     20 H2          38.8100    -3.2050    14.6860 h1         1 YGI       0.062200
     21 H3          37.1820    -3.5850    14.0590 h1         1 YGI       0.062200
     22 H4          37.5700    -6.9430    16.2930 h5         1 YGI       0.104100
     23 H5          42.9010   -10.7130    20.0360 hc         1 YGI       0.038367
     24 H6          43.9550    -9.2980    20.0050 hc         1 YGI       0.038367
     25 H7          42.8270    -9.5270    21.3410 hc         1 YGI       0.038367
     26 H8          42.0110    -5.9340    20.8820 hc         1 YGI       0.046700
     27 H9          43.3940    -7.0240    20.7350 hc         1 YGI       0.046700
     28 H10         43.0570    -5.8310    19.4740 hc         1 YGI       0.046700
@<TRIPOS>BOND
     1     1     3 1   
     2     1     4 1   
     3     1     6 1   
     4     2     7 1   
     5     2     9 1   
     6     2    11 1   
     7     4    18 1   
     8     4    20 1   
     9     4    21 1   
    10     5     8 1   
    11     5     9 2   
    12     7     8 2   
    13     7    18 1   
    14     9    13 1   
    15    10    11 2   
    16    10    12 1   
    17    11    22 1   
    18    12    13 2   
    19    12    19 1   
    20    13    15 1   
    21    14    15 2   
    22    14    16 1   
    23    14    19 1   
    24    15    17 1   
    25    16    23 1   
    26    16    24 1   
    27    16    25 1   
    28    17    26 1   
    29    17    27 1   
    30    17    28 1   
@<TRIPOS>SUBSTRUCTURE
     1 YGI         1 TEMP              0 ****  ****    0 ROOT
