@<TRIPOS>MOLECULE
YGI
   28    30     1     0     0
SMALL
No Charge or Current Charge


@<TRIPOS>ATOM
      1 C1          38.8000    -3.6600    13.8340 c          1 YGI       0.699000
      2 N1          38.8560    -6.5330    17.4530 na         1 YGI      -0.192300
      3 O1          38.7720    -4.5720    13.0190 o          1 YGI      -0.713000
      4 C2          37.6300    -3.5290    14.8370 c3         1 YGI      -0.047400
      5 N2          40.6110    -5.2760    17.7490 nc         1 YGI      -0.127000
      6 O2          39.6890    -2.8210    13.8730 o          1 YGI      -0.713000
      7 C3          38.7020    -5.4380    16.6770 cd         1 YGI       0.389700
      8 N3          39.7140    -4.6090    16.8950 nc         1 YGI      -0.344700
      9 C4          40.0740    -6.4590    18.0190 cd         1 YGI      -0.045000
     10 N4          38.5770    -8.8100    18.0200 nc         1 YGI      -0.680000
     11 C5          38.1530    -7.7320    17.3190 cd         1 YGI       0.608400
     12 C6          39.7640    -8.6940    18.7360 cc         1 YGI       0.381300
     13 C7          40.5580    -7.5770    18.7480 cd         1 YGI      -0.104800
     14 C8          41.8990    -8.9450    20.0480 cc         1 YGI      -0.111600
     15 C9          41.7820    -7.6920    19.4770 cd         1 YGI      -0.019400
     16 C10         43.0250    -9.4780    20.8940 c3         1 YGI      -0.012900
     17 C11         42.8010    -6.5840    19.6060 c3         1 YGI      -0.030900
     18 S1          37.2290    -5.1040    15.7540 ss         1 YGI      -0.315200
     19 S2          40.5050    -9.9710    19.6790 ss         1 YGI      -0.105900
     20 H2          37.8770    -2.7460    15.5640 h1         1 YGI       0.062200
     21 H3          36.7440    -3.2110    14.2760 h1         1 YGI       0.062200
     22 H4          37.2620    -7.7480    16.7030 h5         1 YGI       0.104100
     23 H5          42.8410   -10.5170    21.1930 hc         1 YGI       0.038367
     24 H6          43.9730    -9.4500    20.3450 hc         1 YGI       0.038367
     25 H7          43.1420    -8.8830    21.8070 hc         1 YGI       0.038367
     26 H8          42.3510    -5.6870    20.0470 hc         1 YGI       0.046700
     27 H9          43.6470    -6.8710    20.2410 hc         1 YGI       0.046700
     28 H10         43.2060    -6.3100    18.6250 hc         1 YGI       0.046700
@<TRIPOS>BOND
     1     1     3 1   
     2     1     4 1   
     3     1     6 1   
     4     2     7 1   
     5     2     9 1   
     6     2    11 1   
     7     4    18 1   
     8     4    20 1   
     9     4    21 1   
    10     5     8 1   
    11     5     9 2   
    12     7     8 2   
    13     7    18 1   
    14     9    13 1   
    15    10    11 2   
    16    10    12 1   
    17    11    22 1   
    18    12    13 2   
    19    12    19 1   
    20    13    15 1   
    21    14    15 2   
    22    14    16 1   
    23    14    19 1   
    24    15    17 1   
    25    16    23 1   
    26    16    24 1   
    27    16    25 1   
    28    17    26 1   
    29    17    27 1   
    30    17    28 1   
@<TRIPOS>SUBSTRUCTURE
     1 YGI         1 TEMP              0 ****  ****    0 ROOT
