@<TRIPOS>MOLECULE
YGJ
   30    31     1     0     0
SMALL
No Charge or Current Charge


@<TRIPOS>ATOM
      1 C10        -36.9830    25.0420   -11.1140 ca         1 YGJ      -0.101500
      2 C13        -38.6760    26.8890   -12.3860 ca         1 YGJ      -0.109000
      3 C15        -33.8180    22.3890   -12.4090 ca         1 YGJ      -0.129500
      4 C02        -32.2480    22.4500   -10.5450 ca         1 YGJ       0.103100
      5 C03        -32.2460    23.8540   -10.5910 ca         1 YGJ      -0.141000
      6 C04        -33.0320    24.5260   -11.5450 ca         1 YGJ      -0.129500
      7 C05        -33.8260    23.8020   -12.4520 ca         1 YGJ       0.106100
      8 C07        -35.6430    23.9450   -14.1450 c3         1 YGJ       0.167600
      9 C08        -36.8430    23.6200   -13.2220 c3         1 YGJ      -0.067100
     10 C09        -37.3560    24.8360   -12.4570 ca         1 YGJ      -0.073300
     11 C11        -37.4530    26.1650   -10.4120 ca         1 YGJ      -0.109000
     12 C12        -38.3000    27.0890   -11.0470 ca         1 YGJ      -0.110000
     13 C14        -38.2050    25.7660   -13.0890 ca         1 YGJ      -0.101500
     14 C16        -33.0300    21.7200   -11.4530 ca         1 YGJ      -0.141000
     15 O06        -34.5740    24.5210   -13.3650 os         1 YGJ      -0.340100
     16 H1         -36.3240    24.3350   -10.6160 ha         1 YGJ       0.109500
     17 H2         -39.3310    27.6030   -12.8800 ha         1 YGJ       0.111000
     18 H3         -34.4050    21.7990   -13.1050 ha         1 YGJ       0.122500
     19 H4         -31.6410    24.4300    -9.8930 ha         1 YGJ       0.120000
     20 H5         -33.0320    25.6120   -11.5800 ha         1 YGJ       0.122500
     21 H6         -35.9750    24.6670   -14.9020 h1         1 YGJ       0.052200
     22 H7         -35.3130    23.0450   -14.6790 h1         1 YGJ       0.052200
     23 H8         -37.6490    23.2080   -13.8400 hc         1 YGJ       0.054700
     24 H9         -36.5690    22.8200   -12.5260 hc         1 YGJ       0.054700
     25 H10        -37.1600    26.3200    -9.3750 ha         1 YGJ       0.111000
     26 H11        -38.6640    27.9580   -10.5030 ha         1 YGJ       0.111000
     27 H12        -38.4990    25.6190   -14.1260 ha         1 YGJ       0.109500
     28 H13        -33.0260    20.6330   -11.4200 ha         1 YGJ       0.120000
     29 H14        -31.0110    22.4510    -9.0790 ho         1 YGJ       0.462000
     30 O01        -31.4890    21.7900    -9.6240 oh         1 YGJ      -0.537100
@<TRIPOS>BOND
     1     1    10 ar  
     2     1    11 ar  
     3     1    16 1   
     4     2    12 ar  
     5     2    13 ar  
     6     2    17 1   
     7     3     7 ar  
     8     3    14 ar  
     9     3    18 1   
    10     4     5 ar  
    11     4    14 ar  
    12     4    30 1   
    13     5     6 ar  
    14     5    19 1   
    15     6     7 ar  
    16     6    20 1   
    17     7    15 1   
    18     8     9 1   
    19     8    15 1   
    20     8    21 1   
    21     8    22 1   
    22     9    10 1   
    23     9    23 1   
    24     9    24 1   
    25    10    13 ar  
    26    11    12 ar  
    27    11    25 1   
    28    12    26 1   
    29    13    27 1   
    30    14    28 1   
    31    29    30 1   
@<TRIPOS>SUBSTRUCTURE
     1 YGJ         1 TEMP              0 ****  ****    0 ROOT
