@<TRIPOS>MOLECULE
YGJ
   30    31     1     0     0
SMALL
bcc


@<TRIPOS>ATOM
      1 C10        -37.0560    24.8840   -11.0920 ca         1 YGJ      -0.119500
      2 C13        -38.4500    26.9130   -12.3620 ca         1 YGJ      -0.127000
      3 C15        -33.8810    22.4420   -12.3790 ca         1 YGJ      -0.147500
      4 C02        -32.3010    22.5770   -10.5560 ca         1 YGJ       0.103100
      5 C03        -32.3200    23.9650   -10.6680 ca         1 YGJ      -0.159000
      6 C04        -33.1120    24.5810   -11.6220 ca         1 YGJ      -0.147500
      7 C05        -33.9000    23.8300   -12.4910 ca         1 YGJ       0.106100
      8 C07        -35.6640    23.8960   -14.1110 c3         1 YGJ       0.144400
      9 C08        -36.8680    23.5710   -13.2320 c3         1 YGJ      -0.067100
     10 C09        -37.3420    24.7640   -12.4490 ca         1 YGJ      -0.073300
     11 C11        -37.4590    26.0030   -10.3750 ca         1 YGJ      -0.127000
     12 C12        -38.1570    27.0230   -11.0080 ca         1 YGJ      -0.128000
     13 C14        -38.0460    25.7920   -13.0740 ca         1 YGJ      -0.119500
     14 C16        -33.0900    21.8260   -11.4170 ca         1 YGJ      -0.159000
     15 O06        -34.6100    24.5270   -13.4110 os         1 YGJ      -0.316900
     16 H1         -36.5110    24.0930   -10.5910 ha         1 YGJ       0.127500
     17 H2         -38.9980    27.7000   -12.8630 ha         1 YGJ       0.129000
     18 H3         -34.4740    21.8140   -13.0300 ha         1 YGJ       0.140500
     19 H4         -31.7200    24.5770   -10.0030 ha         1 YGJ       0.138000
     20 H5         -33.1220    25.6610   -11.6940 ha         1 YGJ       0.140500
     21 H6         -35.9560    24.6120   -14.8810 h1         1 YGJ       0.052200
     22 H7         -35.3190    22.9950   -14.6300 h1         1 YGJ       0.052200
     23 H8         -37.6580    23.2110   -13.8970 hc         1 YGJ       0.054700
     24 H9         -36.6400    22.7470   -12.5530 hc         1 YGJ       0.054700
     25 H10        -37.2270    26.0780    -9.3200 ha         1 YGJ       0.129000
     26 H11        -38.4730    27.8950   -10.4510 ha         1 YGJ       0.129000
     27 H12        -38.2830    25.7150   -14.1290 ha         1 YGJ       0.127500
     28 H13        -33.0890    20.7450   -11.3420 ha         1 YGJ       0.138000
     29 H14        -31.0480    22.5460    -9.1070 ho         1 YGJ       0.423000
     30 O01        -31.5470    21.9210    -9.6430 oh         1 YGJ      -0.498100
@<TRIPOS>BOND
     1     1    10 ar  
     2     1    11 ar  
     3     1    16 1   
     4     2    12 ar  
     5     2    13 ar  
     6     2    17 1   
     7     3     7 ar  
     8     3    14 ar  
     9     3    18 1   
    10     4     5 ar  
    11     4    14 ar  
    12     4    30 1   
    13     5     6 ar  
    14     5    19 1   
    15     6     7 ar  
    16     6    20 1   
    17     7    15 1   
    18     8     9 1   
    19     8    15 1   
    20     8    21 1   
    21     8    22 1   
    22     9    10 1   
    23     9    23 1   
    24     9    24 1   
    25    10    13 ar  
    26    11    12 ar  
    27    11    25 1   
    28    12    26 1   
    29    13    27 1   
    30    14    28 1   
    31    29    30 1   
@<TRIPOS>SUBSTRUCTURE
     1 YGJ         1 TEMP              0 ****  ****    0 ROOT
