@<TRIPOS>MOLECULE
YGL
   37    40     1     0     0
SMALL
No Charge or Current Charge


@<TRIPOS>ATOM
      1 CAK          1.7420   -15.6840    31.3620 ca         1 YGL      -0.085000
      2 CAG          2.3980   -16.9200    31.4920 ca         1 YGL      -0.116500
      3 CAD          3.0440   -17.2490    32.6950 ca         1 YGL      -0.108000
      4 CAH          3.0310   -16.3400    33.7650 ca         1 YGL      -0.116500
      5 CAL          2.3720   -15.1050    33.6340 ca         1 YGL      -0.085000
      6 CAR          1.7240   -14.7590    32.4300 ca         1 YGL      -0.018000
      7 CAT          1.0250   -13.4740    32.2820 cc         1 YGL       0.001000
      8 CAW          0.2190   -12.7740    33.2240 cc         1 YGL      -0.293600
      9 CAU         -0.2670   -13.1840    34.5460 c          1 YGL       0.619600
     10 OAB         -0.0640   -14.2490    35.1040 o          1 YGL      -0.542000
     11 NAN         -1.0290   -12.2210    35.1070 ns         1 YGL      -0.457400
     12 CAP         -1.3160   -11.0520    34.5030 cc         1 YGL       0.725800
     13 NAA         -2.0840   -10.2200    35.1820 nv         1 YGL      -1.037200
     14 NAM         -0.9400   -10.6560    33.3110 nd         1 YGL      -0.715100
     15 CAV         -0.1420   -11.5900    32.6660 cd         1 YGL       0.174400
     16 NAO          0.4200   -11.5130    31.4050 na         1 YGL      -0.110000
     17 CAS          1.1930   -12.6640    31.1610 cd         1 YGL      -0.112000
     18 CAQ          2.1350   -12.7490    30.0160 ca         1 YGL      -0.017000
     19 CAI          1.8340   -12.0500    28.8250 ca         1 YGL      -0.099000
     20 CAE          2.7050   -12.0900    27.7230 ca         1 YGL      -0.109500
     21 CAC          3.9040   -12.8140    27.7990 ca         1 YGL      -0.107000
     22 CAF          4.2340   -13.4880    28.9840 ca         1 YGL      -0.109500
     23 CAJ          3.3610   -13.4510    30.0850 ca         1 YGL      -0.099000
     24 HAK          1.2350   -15.4450    30.4300 ha         1 YGL       0.118000
     25 HAG          2.4040   -17.6220    30.6620 ha         1 YGL       0.111000
     26 HAD          3.5530   -18.2050    32.7970 ha         1 YGL       0.109000
     27 HAH          3.5350   -16.5900    34.6960 ha         1 YGL       0.111000
     28 HAL          2.3970   -14.4010    34.4610 ha         1 YGL       0.118000
     29 HAN         -1.3840   -12.4040    36.0300 hn         1 YGL       0.322500
     30 HAA1        -2.4300    -9.4540    34.6190 hn         1 YGL       0.495000
     31 HAA2        -2.7630   -10.6310    35.8110 hn         1 YGL       0.495000
     32 HAO          0.3410   -10.7100    30.7960 hn         1 YGL       0.361000
     33 HAI          0.9060   -11.4920    28.7360 ha         1 YGL       0.117500
     34 HAJ          3.6730   -13.9380    31.0020 ha         1 YGL       0.117500
     35 HAE          2.4490   -11.5580    26.8090 ha         1 YGL       0.114500
     36 HAC          4.5810   -12.8430    26.9470 ha         1 YGL       0.114000
     37 HAF          5.1730   -14.0320    29.0550 ha         1 YGL       0.114500
@<TRIPOS>BOND
     1     1     2 ar  
     2     1     6 ar  
     3     1    24 1   
     4     2     3 ar  
     5     2    25 1   
     6     3     4 ar  
     7     3    26 1   
     8     4     5 ar  
     9     4    27 1   
    10     5     6 ar  
    11     5    28 1   
    12     6     7 1   
    13     7     8 1   
    14     7    17 2   
    15     8     9 1   
    16     8    15 2   
    17     9    10 2   
    18     9    11 1   
    19    11    12 1   
    20    11    29 1   
    21    12    13 1   
    22    12    14 2   
    23    13    30 1   
    24    13    31 1   
    25    14    15 1   
    26    15    16 1   
    27    16    17 1   
    28    16    32 1   
    29    17    18 1   
    30    18    19 ar  
    31    18    23 ar  
    32    19    20 ar  
    33    19    33 1   
    34    20    21 ar  
    35    20    35 1   
    36    21    22 ar  
    37    21    36 1   
    38    22    23 ar  
    39    22    37 1   
    40    23    34 1   
@<TRIPOS>SUBSTRUCTURE
     1 YGL         1 TEMP              0 ****  ****    0 ROOT
