@<TRIPOS>MOLECULE
YGL
   37    40     1     0     0
SMALL
abcg2


@<TRIPOS>ATOM
      1 CAK          1.7080   -15.7320    31.4240 ca         1 YGL      -0.085000
      2 CAG          2.2780   -16.9950    31.5220 ca         1 YGL      -0.116500
      3 CAD          2.9800   -17.3580    32.6680 ca         1 YGL      -0.108000
      4 CAH          3.1030   -16.4480    33.7140 ca         1 YGL      -0.116500
      5 CAL          2.5320   -15.1850    33.6150 ca         1 YGL      -0.085000
      6 CAR          1.8310   -14.8060    32.4660 ca         1 YGL      -0.018000
      7 CAT          1.2370   -13.4640    32.3470 cc         1 YGL       0.001000
      8 CAW          0.3280   -12.8320    33.2680 cc         1 YGL      -0.293600
      9 CAU         -0.2840   -13.2120    34.4990 c          1 YGL       0.619600
     10 OAB         -0.1580   -14.2540    35.1440 o          1 YGL      -0.542000
     11 NAN         -1.1430   -12.2100    34.9920 ns         1 YGL      -0.457400
     12 CAP         -1.4110   -11.0140    34.3850 cc         1 YGL       0.725800
     13 NAA         -2.2310   -10.1590    35.0410 nv         1 YGL      -1.037200
     14 NAM         -0.8790   -10.6700    33.2330 nd         1 YGL      -0.715100
     15 CAV         -0.0360   -11.5920    32.7180 cd         1 YGL       0.174400
     16 NAO          0.6050   -11.4640    31.5320 na         1 YGL      -0.110000
     17 CAS          1.3980   -12.5860    31.2890 cd         1 YGL      -0.112000
     18 CAQ          2.2260   -12.6600    30.0870 ca         1 YGL      -0.017000
     19 CAI          1.7780   -12.1120    28.8770 ca         1 YGL      -0.099000
     20 CAE          2.5680   -12.1710    27.7350 ca         1 YGL      -0.109500
     21 CAC          3.8180   -12.7800    27.7770 ca         1 YGL      -0.107000
     22 CAF          4.2750   -13.3240    28.9750 ca         1 YGL      -0.109500
     23 CAJ          3.4910   -13.2610    30.1190 ca         1 YGL      -0.099000
     24 HAK          1.1590   -15.4550    30.5330 ha         1 YGL       0.118000
     25 HAG          2.1700   -17.6980    30.7060 ha         1 YGL       0.111000
     26 HAD          3.4250   -18.3420    32.7460 ha         1 YGL       0.109000
     27 HAH          3.6480   -16.7210    34.6090 ha         1 YGL       0.111000
     28 HAL          2.6320   -14.4810    34.4310 ha         1 YGL       0.118000
     29 HAN         -1.5900   -12.4250    35.8740 hn         1 YGL       0.322500
     30 HAA1        -2.5810    -9.3760    34.5110 hn         1 YGL       0.495000
     31 HAA2        -2.8320   -10.5100    35.7700 hn         1 YGL       0.495000
     32 HAO          0.5800   -10.6350    30.9590 hn         1 YGL       0.361000
     33 HAI          0.7990   -11.6540    28.8230 ha         1 YGL       0.117500
     34 HAJ          3.8620   -13.6710    31.0470 ha         1 YGL       0.117500
     35 HAE          2.2010   -11.7450    26.8090 ha         1 YGL       0.114500
     36 HAC          4.4320   -12.8280    26.8870 ha         1 YGL       0.114000
     37 HAF          5.2510   -13.7900    29.0210 ha         1 YGL       0.114500
@<TRIPOS>BOND
     1     1     2 ar  
     2     1     6 ar  
     3     1    24 1   
     4     2     3 ar  
     5     2    25 1   
     6     3     4 ar  
     7     3    26 1   
     8     4     5 ar  
     9     4    27 1   
    10     5     6 ar  
    11     5    28 1   
    12     6     7 1   
    13     7     8 1   
    14     7    17 2   
    15     8     9 1   
    16     8    15 2   
    17     9    10 2   
    18     9    11 1   
    19    11    12 1   
    20    11    29 1   
    21    12    13 1   
    22    12    14 2   
    23    13    30 1   
    24    13    31 1   
    25    14    15 1   
    26    15    16 1   
    27    16    17 1   
    28    16    32 1   
    29    17    18 1   
    30    18    19 ar  
    31    18    23 ar  
    32    19    20 ar  
    33    19    33 1   
    34    20    21 ar  
    35    20    35 1   
    36    21    22 ar  
    37    21    36 1   
    38    22    23 ar  
    39    22    37 1   
    40    23    34 1   
@<TRIPOS>SUBSTRUCTURE
     1 YGL         1 TEMP              0 ****  ****    0 ROOT
