@<TRIPOS>MOLECULE
YGM
   22    22     1     0     0
SMALL
abcg2


@<TRIPOS>ATOM
      1 C10        -32.4530     5.8620     3.2360 ca         1 YGM      -0.109000
      2 C01        -32.5470     8.4060     0.6530 c2         1 YGM      -0.317000
      3 C02        -32.9080     9.3900     1.4700 c2         1 YGM      -0.215200
      4 C03        -32.6010     9.5190     2.9290 c3         1 YGM      -0.038200
      5 C04        -31.9520     8.3110     3.6030 c3         1 YGM      -0.028100
      6 C05        -32.8470     7.1040     3.7280 ca         1 YGM      -0.071300
      7 C06        -34.0790     7.1940     4.3750 ca         1 YGM      -0.109000
      8 C07        -34.8950     6.0790     4.5170 ca         1 YGM      -0.108500
      9 C08        -34.4890     4.8470     4.0190 ca         1 YGM      -0.113000
     10 C09        -33.2630     4.7420     3.3780 ca         1 YGM      -0.108500
     11 H1         -31.4970     5.7700     2.7330 ha         1 YGM       0.108500
     12 H2         -31.9800     7.5450     0.9820 ha         1 YGM       0.161000
     13 H3         -32.8110     8.4310    -0.3970 ha         1 YGM       0.161000
     14 H4         -33.4750    10.2180     1.0540 ha         1 YGM       0.162000
     15 H5         -31.9460    10.3870     3.0600 hc         1 YGM       0.045200
     16 H6         -33.5210     9.7900     3.4560 hc         1 YGM       0.045200
     17 H7         -31.0380     8.0350     3.0720 hc         1 YGM       0.046700
     18 H8         -31.6360     8.6190     4.6030 hc         1 YGM       0.046700
     19 H9         -34.4080     8.1440     4.7790 ha         1 YGM       0.108500
     20 H10        -35.8480     6.1730     5.0220 ha         1 YGM       0.110500
     21 H11        -35.1240     3.9770     4.1310 ha         1 YGM       0.111000
     22 H12        -32.9340     3.7880     2.9870 ha         1 YGM       0.110500
@<TRIPOS>BOND
     1     1     6 ar  
     2     1    10 ar  
     3     1    11 1   
     4     2     3 2   
     5     2    12 1   
     6     2    13 1   
     7     3     4 1   
     8     3    14 1   
     9     4     5 1   
    10     4    15 1   
    11     4    16 1   
    12     5     6 1   
    13     5    17 1   
    14     5    18 1   
    15     6     7 ar  
    16     7     8 ar  
    17     7    19 1   
    18     8     9 ar  
    19     8    20 1   
    20     9    10 ar  
    21     9    21 1   
    22    10    22 1   
@<TRIPOS>SUBSTRUCTURE
     1 YGM         1 TEMP              0 ****  ****    0 ROOT
