@<TRIPOS>MOLECULE
YGM
   22    22     1     0     0
SMALL
No Charge or Current Charge


@<TRIPOS>ATOM
      1 C10        -32.7650     5.7980     3.2070 ca         1 YGM      -0.109000
      2 C01        -32.0070     9.1880     0.2560 c2         1 YGM      -0.317000
      3 C02        -32.6950     8.7960     1.3390 c2         1 YGM      -0.215200
      4 C03        -32.4490     9.2790     2.7560 c3         1 YGM      -0.038200
      5 C04        -31.9440     8.1600     3.6920 c3         1 YGM      -0.028100
      6 C05        -32.9510     7.0280     3.8680 ca         1 YGM      -0.071300
      7 C06        -34.0790     7.2060     4.6930 ca         1 YGM      -0.109000
      8 C07        -35.0110     6.1660     4.8550 ca         1 YGM      -0.108500
      9 C08        -34.8210     4.9420     4.1930 ca         1 YGM      -0.113000
     10 C09        -33.6970     4.7580     3.3690 ca         1 YGM      -0.108500
     11 H1         -31.9000     5.6480     2.5650 ha         1 YGM       0.108500
     12 H2         -31.1880     9.9070     0.3230 ha         1 YGM       0.161000
     13 H3         -32.2390     8.8020    -0.7370 ha         1 YGM       0.161000
     14 H4         -33.5130     8.0770     1.2430 ha         1 YGM       0.162000
     15 H5         -31.7100    10.0900     2.7560 hc         1 YGM       0.045200
     16 H6         -33.3710     9.7060     3.1690 hc         1 YGM       0.045200
     17 H7         -30.9940     7.7730     3.3020 hc         1 YGM       0.046700
     18 H8         -31.7110     8.5990     4.6700 hc         1 YGM       0.046700
     19 H9         -34.2340     8.1510     5.2080 ha         1 YGM       0.108500
     20 H10        -35.8810     6.3100     5.4930 ha         1 YGM       0.110500
     21 H11        -35.5420     4.1370     4.3170 ha         1 YGM       0.111000
     22 H12        -33.5490     3.8100     2.8550 ha         1 YGM       0.110500
@<TRIPOS>BOND
     1     1     6 ar  
     2     1    10 ar  
     3     1    11 1   
     4     2     3 2   
     5     2    12 1   
     6     2    13 1   
     7     3     4 1   
     8     3    14 1   
     9     4     5 1   
    10     4    15 1   
    11     4    16 1   
    12     5     6 1   
    13     5    17 1   
    14     5    18 1   
    15     6     7 ar  
    16     7     8 ar  
    17     7    19 1   
    18     8     9 ar  
    19     8    20 1   
    20     9    10 ar  
    21     9    21 1   
    22    10    22 1   
@<TRIPOS>SUBSTRUCTURE
     1 YGM         1 TEMP              0 ****  ****    0 ROOT
