@<TRIPOS>MOLECULE
YGO
   74    76     1     0     0
SMALL
No Charge or Current Charge


@<TRIPOS>ATOM
      1 C02         11.2460    31.8400    22.9170 c          1 YGO       0.555600
      2 C04         13.1790    33.3610    23.7030 ca         1 YGO      -0.030000
      3 C05         13.9350    33.6350    24.8590 ca         1 YGO       0.057100
      4 C07         14.4940    32.8440    27.1630 c3         1 YGO       0.182300
      5 C08         15.7320    31.9790    26.7790 c3         1 YGO      -0.109400
      6 C09         16.7830    31.8270    27.9010 c3         1 YGO      -0.086100
      7 C10         13.6320    32.3180    28.3510 c3         1 YGO      -0.066400
      8 C11         12.5970    31.1890    28.0730 c3         1 YGO      -0.071400
      9 C12         13.1720    29.8430    27.5890 c3         1 YGO      -0.087100
     10 C13         14.9480    34.6140    24.8140 ca         1 YGO      -0.118000
     11 C14         15.2160    35.3050    23.6220 ca         1 YGO      -0.124000
     12 C15         14.4760    35.0410    22.4440 ca         1 YGO      -0.048300
     13 C16         14.7410    35.7820    21.1040 c3         1 YGO       0.001300
     14 C17         15.8900    36.8250    21.2000 c3         1 YGO      -0.083433
     15 C18         13.4530    36.5320    20.6690 c3         1 YGO      -0.083433
     16 C19         15.1290    34.7470    20.0130 c3         1 YGO      -0.083433
     17 C20         13.4570    34.0610    22.5080 ca         1 YGO      -0.130000
     18 C21         10.4060    30.7690    23.5440 cc         1 YGO       0.111500
     19 C22          9.4180    30.0770    22.8890 cd         1 YGO      -0.064300
     20 C23          8.9100    30.1520    21.4620 c3         1 YGO      -0.029800
     21 C27          7.9640    28.3210    23.6100 ca         1 YGO      -0.044200
     22 C28          6.6040    28.7010    23.5840 ca         1 YGO       0.152100
     23 C30          4.9240    30.5000    23.8290 c3         1 YGO       0.145900
     24 C31          5.6200    27.7340    23.2860 ca         1 YGO      -0.186000
     25 C32          5.9930    26.4040    23.0210 ca         1 YGO      -0.070000
     26 C33          7.3440    26.0220    23.0500 ca         1 YGO       0.070100
     27 C35          8.9970    24.2040    22.7850 c3         1 YGO       0.146900
     28 C36          8.3320    26.9860    23.3470 ca         1 YGO      -0.071000
     29 N03         12.1710    32.3610    23.8120 ns         1 YGO      -0.126000
     30 N24          8.9550    29.2580    23.8980 na         1 YGO       0.214000
     31 N25          9.6410    29.3950    25.0680 nd         1 YGO      -0.174800
     32 N26         10.5210    30.3400    24.8530 nc         1 YGO      -0.353000
     33 O01         11.1330    32.2150    21.7530 o          1 YGO      -0.602100
     34 O06         13.6270    32.9340    26.0130 os         1 YGO      -0.376100
     35 O29          6.2790    30.0200    23.8470 os         1 YGO      -0.329100
     36 O34          7.6460    24.7010    22.7820 os         1 YGO      -0.351100
     37 H1          14.8500    33.8400    27.4550 h1         1 YGO       0.033700
     38 H2          16.2340    32.4390    25.9210 hc         1 YGO       0.053200
     39 H3          15.4220    30.9860    26.4440 hc         1 YGO       0.053200
     40 H4          17.6770    31.3240    27.5150 hc         1 YGO       0.033033
     41 H5          17.0830    32.8080    28.2880 hc         1 YGO       0.033033
     42 H6          16.3940    31.2270    28.7310 hc         1 YGO       0.033033
     43 H7          14.2850    32.0080    29.1740 hc         1 YGO       0.045700
     44 H8          13.0710    33.1760    28.7420 hc         1 YGO       0.045700
     45 H9          11.8500    31.5400    27.3510 hc         1 YGO       0.047200
     46 H10         12.0490    31.0040    29.0050 hc         1 YGO       0.047200
     47 H11         12.4080    29.0600    27.6600 hc         1 YGO       0.030367
     48 H12         13.4800    29.9050    26.5400 hc         1 YGO       0.030367
     49 H13         14.0310    29.5400    28.2000 hc         1 YGO       0.030367
     50 H14         15.5360    34.8560    25.6940 ha         1 YGO       0.118000
     51 H15         16.0070    36.0470    23.6410 ha         1 YGO       0.114000
     52 H16         15.6580    37.6030    21.9390 hc         1 YGO       0.035922
     53 H17         16.8370    36.3470    21.4800 hc         1 YGO       0.035922
     54 H18         16.0460    37.3250    20.2360 hc         1 YGO       0.035922
     55 H19         13.1380    37.2420    21.4440 hc         1 YGO       0.035922
     56 H20         13.6210    37.0960    19.7430 hc         1 YGO       0.035922
     57 H21         12.6220    35.8410    20.4870 hc         1 YGO       0.035922
     58 H22         16.0150    34.1780    20.3190 hc         1 YGO       0.035922
     59 H23         14.3190    34.0340    19.8230 hc         1 YGO       0.035922
     60 H24         15.3580    35.2460    19.0630 hc         1 YGO       0.035922
     61 H25         12.8840    33.8500    21.6140 ha         1 YGO       0.144000
     62 H26          9.7380    30.0900    20.7470 hc         1 YGO       0.065700
     63 H27          8.2150    29.3410    21.2140 hc         1 YGO       0.065700
     64 H28          8.3860    31.0990    21.2860 hc         1 YGO       0.065700
     65 H29          4.8980    31.5720    24.0620 h1         1 YGO       0.048367
     66 H30          4.4720    30.3580    22.8390 h1         1 YGO       0.048367
     67 H31          4.3140    29.9760    24.5750 h1         1 YGO       0.048367
     68 H32          4.5650    27.9910    23.2550 ha         1 YGO       0.128000
     69 H33          5.2300    25.6630    22.7920 ha         1 YGO       0.131000
     70 H34          9.0080    23.1330    22.5480 h1         1 YGO       0.037367
     71 H35          9.6060    24.7240    22.0340 h1         1 YGO       0.037367
     72 H36          9.4600    24.3390    23.7700 h1         1 YGO       0.037367
     73 H37          9.3850    26.7180    23.3760 ha         1 YGO       0.145000
     74 H38         12.1240    31.9440    24.7330 hn         1 YGO       0.192000
@<TRIPOS>BOND
     1     1    18 1   
     2     1    29 1   
     3     1    33 2   
     4     2     3 ar  
     5     2    17 ar  
     6     2    29 1   
     7     3    10 ar  
     8     3    34 1   
     9     4     5 1   
    10     4     7 1   
    11     4    34 1   
    12     4    37 1   
    13     5     6 1   
    14     5    38 1   
    15     5    39 1   
    16     6    40 1   
    17     6    41 1   
    18     6    42 1   
    19     7     8 1   
    20     7    43 1   
    21     7    44 1   
    22     8     9 1   
    23     8    45 1   
    24     8    46 1   
    25     9    47 1   
    26     9    48 1   
    27     9    49 1   
    28    10    11 ar  
    29    10    50 1   
    30    11    12 ar  
    31    11    51 1   
    32    12    13 1   
    33    12    17 ar  
    34    13    14 1   
    35    13    15 1   
    36    13    16 1   
    37    14    52 1   
    38    14    53 1   
    39    14    54 1   
    40    15    55 1   
    41    15    56 1   
    42    15    57 1   
    43    16    58 1   
    44    16    59 1   
    45    16    60 1   
    46    17    61 1   
    47    18    19 2   
    48    18    32 1   
    49    19    20 1   
    50    19    30 1   
    51    20    62 1   
    52    20    63 1   
    53    20    64 1   
    54    21    22 ar  
    55    21    28 ar  
    56    21    30 1   
    57    22    24 ar  
    58    22    35 1   
    59    23    35 1   
    60    23    65 1   
    61    23    66 1   
    62    23    67 1   
    63    24    25 ar  
    64    24    68 1   
    65    25    26 ar  
    66    25    69 1   
    67    26    28 ar  
    68    26    36 1   
    69    27    36 1   
    70    27    70 1   
    71    27    71 1   
    72    27    72 1   
    73    28    73 1   
    74    29    74 1   
    75    30    31 1   
    76    31    32 2   
@<TRIPOS>SUBSTRUCTURE
     1 YGO         1 TEMP              0 ****  ****    0 ROOT
