@<TRIPOS>MOLECULE
YGO
   74    76     1     0     0
SMALL
abcg2


@<TRIPOS>ATOM
      1 C02         11.3620    32.2280    23.0610 c          1 YGO       0.555600
      2 C04         13.0920    33.8130    23.8840 ca         1 YGO      -0.030000
      3 C05         13.8430    34.0720    25.0430 ca         1 YGO       0.057100
      4 C07         14.4240    32.4770    26.7320 c3         1 YGO       0.182300
      5 C08         14.5940    31.2910    25.7890 c3         1 YGO      -0.109400
      6 C09         15.6270    30.2860    26.2820 c3         1 YGO      -0.086100
      7 C10         13.9270    32.1480    28.1340 c3         1 YGO      -0.066400
      8 C11         12.5500    31.4830    28.2500 c3         1 YGO      -0.071400
      9 C12         12.5420    29.9620    28.1480 c3         1 YGO      -0.087100
     10 C13         14.8760    34.9860    24.9940 ca         1 YGO      -0.118000
     11 C14         15.1790    35.6490    23.8100 ca         1 YGO      -0.124000
     12 C15         14.4440    35.4180    22.6540 ca         1 YGO      -0.048300
     13 C16         14.7430    36.1170    21.3310 c3         1 YGO       0.001300
     14 C17         15.8980    37.1120    21.4550 c3         1 YGO      -0.083433
     15 C18         13.5020    36.8850    20.8580 c3         1 YGO      -0.083433
     16 C19         15.1270    35.0670    20.2790 c3         1 YGO      -0.083433
     17 C20         13.3940    34.4980    22.7130 ca         1 YGO      -0.130000
     18 C21         10.5120    31.1550    23.6070 cc         1 YGO       0.111500
     19 C22          9.6990    30.2700    22.9310 cd         1 YGO      -0.064300
     20 C23          9.3820    30.0870    21.4970 c3         1 YGO      -0.029800
     21 C27          8.3230    28.4000    23.8300 ca         1 YGO      -0.044200
     22 C28          7.0060    28.6150    23.4090 ca         1 YGO       0.152100
     23 C30          5.3590    30.1400    22.6510 c3         1 YGO       0.145900
     24 C31          6.1530    27.5180    23.3400 ca         1 YGO      -0.186000
     25 C32          6.6070    26.2540    23.6920 ca         1 YGO      -0.070000
     26 C33          7.9100    26.0580    24.1260 ca         1 YGO       0.070100
     27 C35          9.0980    24.1340    23.5270 c3         1 YGO       0.146900
     28 C36          8.7750    27.1430    24.1860 ca         1 YGO      -0.071000
     29 N03         12.0770    32.8650    24.0160 ns         1 YGO      -0.126000
     30 N24          9.2060    29.5030    23.9240 na         1 YGO       0.214000
     31 N25          9.6750    29.8770    25.1180 nd         1 YGO      -0.174800
     32 N26         10.4590    30.8650    24.9270 nc         1 YGO      -0.353000
     33 O01         11.3960    32.4730    21.8660 o          1 YGO      -0.602100
     34 O06         13.4920    33.4330    26.1920 os         1 YGO      -0.376100
     35 O29          6.6730    29.8760    23.1070 os         1 YGO      -0.329100
     36 O34          8.3260    24.8190    24.5030 os         1 YGO      -0.351100
     37 H1          15.4010    32.9670    26.8380 h1         1 YGO       0.033700
     38 H2          14.9150    31.6670    24.8130 hc         1 YGO       0.053200
     39 H3          13.6330    30.7980    25.6240 hc         1 YGO       0.053200
     40 H4          15.7850    29.5050    25.5380 hc         1 YGO       0.033033
     41 H5          16.5900    30.7670    26.4650 hc         1 YGO       0.033033
     42 H6          15.3190    29.8000    27.2070 hc         1 YGO       0.033033
     43 H7          14.6800    31.5290    28.6280 hc         1 YGO       0.045700
     44 H8          13.9150    33.0880    28.6920 hc         1 YGO       0.045700
     45 H9          11.8610    31.9030    27.5140 hc         1 YGO       0.047200
     46 H10         12.1330    31.7540    29.2230 hc         1 YGO       0.047200
     47 H11         11.5420    29.5710    28.3420 hc         1 YGO       0.030367
     48 H12         12.8400    29.6020    27.1630 hc         1 YGO       0.030367
     49 H13         13.2160    29.5150    28.8800 hc         1 YGO       0.030367
     50 H14         15.4510    35.1910    25.8890 ha         1 YGO       0.118000
     51 H15         15.9990    36.3540    23.8170 ha         1 YGO       0.114000
     52 H16         15.6850    37.8990    22.1800 hc         1 YGO       0.035922
     53 H17         16.8300    36.6240    21.7480 hc         1 YGO       0.035922
     54 H18         16.0700    37.5920    20.4910 hc         1 YGO       0.035922
     55 H19         13.2140    37.6510    21.5800 hc         1 YGO       0.035922
     56 H20         13.7050    37.3800    19.9060 hc         1 YGO       0.035922
     57 H21         12.6440    36.2280    20.7090 hc         1 YGO       0.035922
     58 H22         16.0150    34.5130    20.5870 hc         1 YGO       0.035922
     59 H23         14.3250    34.3470    20.1070 hc         1 YGO       0.035922
     60 H24         15.3480    35.5490    19.3250 hc         1 YGO       0.035922
     61 H25         12.8070    34.3030    21.8290 ha         1 YGO       0.144000
     62 H26         10.2650    30.2660    20.8900 hc         1 YGO       0.065700
     63 H27          9.0200    29.0800    21.2940 hc         1 YGO       0.065700
     64 H28          8.6120    30.7910    21.1800 hc         1 YGO       0.065700
     65 H29          5.3150    31.2070    22.4490 h1         1 YGO       0.048367
     66 H30          5.1320    29.5960    21.7320 h1         1 YGO       0.048367
     67 H31          4.6110    29.8910    23.4080 h1         1 YGO       0.048367
     68 H32          5.1270    27.6300    23.0200 ha         1 YGO       0.128000
     69 H33          5.9280    25.4120    23.6390 ha         1 YGO       0.131000
     70 H34          9.3790    23.1730    23.9530 h1         1 YGO       0.037367
     71 H35          8.5250    23.9620    22.6110 h1         1 YGO       0.037367
     72 H36         10.0080    24.6830    23.2700 h1         1 YGO       0.037367
     73 H37          9.7990    27.0160    24.5150 ha         1 YGO       0.145000
     74 H38         11.9430    32.5260    24.9600 hn         1 YGO       0.192000
@<TRIPOS>BOND
     1     1    18 1   
     2     1    29 1   
     3     1    33 2   
     4     2     3 ar  
     5     2    17 ar  
     6     2    29 1   
     7     3    10 ar  
     8     3    34 1   
     9     4     5 1   
    10     4     7 1   
    11     4    34 1   
    12     4    37 1   
    13     5     6 1   
    14     5    38 1   
    15     5    39 1   
    16     6    40 1   
    17     6    41 1   
    18     6    42 1   
    19     7     8 1   
    20     7    43 1   
    21     7    44 1   
    22     8     9 1   
    23     8    45 1   
    24     8    46 1   
    25     9    47 1   
    26     9    48 1   
    27     9    49 1   
    28    10    11 ar  
    29    10    50 1   
    30    11    12 ar  
    31    11    51 1   
    32    12    13 1   
    33    12    17 ar  
    34    13    14 1   
    35    13    15 1   
    36    13    16 1   
    37    14    52 1   
    38    14    53 1   
    39    14    54 1   
    40    15    55 1   
    41    15    56 1   
    42    15    57 1   
    43    16    58 1   
    44    16    59 1   
    45    16    60 1   
    46    17    61 1   
    47    18    19 2   
    48    18    32 1   
    49    19    20 1   
    50    19    30 1   
    51    20    62 1   
    52    20    63 1   
    53    20    64 1   
    54    21    22 ar  
    55    21    28 ar  
    56    21    30 1   
    57    22    24 ar  
    58    22    35 1   
    59    23    35 1   
    60    23    65 1   
    61    23    66 1   
    62    23    67 1   
    63    24    25 ar  
    64    24    68 1   
    65    25    26 ar  
    66    25    69 1   
    67    26    28 ar  
    68    26    36 1   
    69    27    36 1   
    70    27    70 1   
    71    27    71 1   
    72    27    72 1   
    73    28    73 1   
    74    29    74 1   
    75    30    31 1   
    76    31    32 2   
@<TRIPOS>SUBSTRUCTURE
     1 YGO         1 TEMP              0 ****  ****    0 ROOT
