@<TRIPOS>MOLECULE
YGP
   53    56     1     0     0
SMALL
abcg2


@<TRIPOS>ATOM
      1 C2          26.6800   -47.9310     8.6710 cc         1 YGP       0.740800
      2 N2          27.9520   -48.2960     8.9260 nv         1 YGP      -1.042200
      3 C4          24.7220   -48.1170     7.6270 cd         1 YGP       0.155400
      4 C5          24.1490   -47.0040     8.2320 cc         1 YGP       0.088500
      5 C6          24.9160   -46.2710     9.1810 c          1 YGP       0.523500
      6 O6          24.6000   -45.2790     9.8380 o          1 YGP      -0.563000
      7 N1          26.2020   -46.8260     9.3230 ns         1 YGP      -0.452400
      8 N3          25.9570   -48.6170     7.8080 nd         1 YGP      -0.698100
      9 N7          22.8520   -46.8250     7.7770 nc         1 YGP      -0.596000
     10 C8          22.6530   -47.7970     6.9280 cd         1 YGP       0.441400
     11 N9          23.7520   -48.6300     6.7980 na         1 YGP      -0.205500
     12 C1          23.9400   -49.8100     5.9650 c5         1 YGP       0.291300
     13 O4          24.3700   -49.4600     4.6620 os         1 YGP      -0.430000
     14 C7          22.6830   -50.6750     5.7810 c5         1 YGP       0.092300
     15 O2          23.0510   -52.0260     5.5600 oh         1 YGP      -0.694000
     16 C3          22.0910   -50.1070     4.4790 c5         1 YGP       0.149300
     17 O3          21.3390   -51.0120     3.6970 oh         1 YGP      -0.697000
     18 C9          23.3250   -49.6550     3.6930 c5         1 YGP       0.161300
     19 C10         23.1240   -48.3900     2.8910 c3         1 YGP       0.220600
     20 O5          22.5990   -47.3810     3.7540 os         1 YGP      -0.620400
     21 PBG         22.4560   -45.8460     3.2670 p5         1 YGP       1.418800
     22 OAI         21.5630   -45.1840     4.2560 o          1 YGP      -0.806500
     23 OAF         22.2070   -45.7780     1.8010 o          1 YGP      -0.806500
     24 OAR         24.0120   -45.3040     3.4370 os         1 YGP      -0.494500
     25 CAW         24.6540   -45.0270     4.6120 cc         1 YGP       0.304100
     26 CAK         24.1160   -44.0380     5.4740 cc         1 YGP      -0.288000
     27 CAT         24.7990   -43.6940     6.5990 cd         1 YGP       0.056400
     28 CAA         24.3340   -42.6840     7.5950 c3         1 YGP      -0.063900
     29 NAO         25.9860   -44.3120     6.8540 ns         1 YGP      -0.376100
     30 CAX         26.5730   -45.2890     6.0660 c          1 YGP       0.556200
     31 OAD         27.6630   -45.7760     6.4140 o          1 YGP      -0.639000
     32 CAV         25.8480   -45.6570     4.8780 cd         1 YGP      -0.285400
     33 CAB         26.4610   -46.6900     3.9860 c3         1 YGP      -0.006900
     34 H1          28.2580   -49.1850     8.5650 hn         1 YGP       0.494500
     35 H2          28.4460   -47.9220     9.7190 hn         1 YGP       0.494500
     36 H3          26.8110   -46.3340     9.9640 hn         1 YGP       0.312500
     37 H4          21.7480   -47.9550     6.3680 h5         1 YGP       0.074100
     38 H5          24.7330   -50.3800     6.4440 h2         1 YGP       0.094700
     39 H6          21.9970   -50.5900     6.6260 h1         1 YGP       0.051700
     40 H7          23.3660   -52.3940     6.3950 ho         1 YGP       0.494000
     41 H8          21.4830   -49.2380     4.7310 h1         1 YGP       0.081700
     42 H9          20.4560   -51.0920     4.0790 ho         1 YGP       0.500000
     43 H10         23.6280   -50.4530     3.0090 h1         1 YGP       0.069700
     44 H11         24.0760   -48.0720     2.4630 h1         1 YGP       0.046700
     45 H12         22.4240   -48.5850     2.0750 h1         1 YGP       0.046700
     46 H14         23.1690   -43.5810     5.2400 ha         1 YGP       0.235000
     47 H16         23.4030   -42.2280     7.2650 hc         1 YGP       0.053367
     48 H17         24.1740   -43.1630     8.5640 hc         1 YGP       0.053367
     49 H18         25.0830   -41.8990     7.7310 hc         1 YGP       0.053367
     50 H19         25.9040   -46.7820     3.0570 hc         1 YGP       0.036033
     51 H20         27.4960   -46.4310     3.7540 hc         1 YGP       0.036033
     52 H21         26.4740   -47.6680     4.4740 hc         1 YGP       0.036033
     53 H15         26.4990   -44.0620     7.6890 hn         1 YGP       0.303500
@<TRIPOS>BOND
     1     1     2 1   
     2     1     7 1   
     3     1     8 2   
     4     2    34 1   
     5     2    35 1   
     6     3     4 2   
     7     3     8 1   
     8     3    11 1   
     9     4     5 1   
    10     4     9 1   
    11     5     6 2   
    12     5     7 1   
    13     7    36 1   
    14     9    10 2   
    15    10    11 1   
    16    10    37 1   
    17    11    12 1   
    18    12    13 1   
    19    12    14 1   
    20    12    38 1   
    21    13    18 1   
    22    14    15 1   
    23    14    16 1   
    24    14    39 1   
    25    15    40 1   
    26    16    17 1   
    27    16    18 1   
    28    16    41 1   
    29    17    42 1   
    30    18    19 1   
    31    18    43 1   
    32    19    20 1   
    33    19    44 1   
    34    19    45 1   
    35    20    21 1   
    36    21    22 1   
    37    21    23 1   
    38    21    24 1   
    39    24    25 1   
    40    25    26 1   
    41    25    32 2   
    42    26    27 2   
    43    26    46 1   
    44    27    28 1   
    45    27    29 1   
    46    28    47 1   
    47    28    48 1   
    48    28    49 1   
    49    29    30 1   
    50    29    53 1   
    51    30    31 2   
    52    30    32 1   
    53    32    33 1   
    54    33    50 1   
    55    33    51 1   
    56    33    52 1   
@<TRIPOS>SUBSTRUCTURE
     1 YGP         1 TEMP              0 ****  ****    0 ROOT
