@<TRIPOS>MOLECULE
YGP
   53    56     1     0     0
SMALL
No Charge or Current Charge


@<TRIPOS>ATOM
      1 C2          25.9120   -49.9650     9.9430 cc         1 YGP       0.740800
      2 N2          26.2830   -51.1880    10.2690 nv         1 YGP      -1.042200
      3 C4          25.1200   -48.4640     8.4580 cd         1 YGP       0.155400
      4 C5          25.1820   -47.4590     9.3850 cc         1 YGP       0.088500
      5 C6          25.6700   -47.7330    10.7580 c          1 YGP       0.523500
      6 O6          25.7730   -46.9190    11.6670 o          1 YGP      -0.563000
      7 N1          26.0110   -49.0380    10.9190 ns         1 YGP      -0.452400
      8 N3          25.4840   -49.7880     8.7110 nd         1 YGP      -0.698100
      9 N7          24.7450   -46.2710     8.8450 nc         1 YGP      -0.596000
     10 C8          24.4190   -46.5590     7.5830 cd         1 YGP       0.441400
     11 N9          24.6370   -47.9050     7.2980 na         1 YGP      -0.205500
     12 C1          24.4080   -48.5780     6.0230 c5         1 YGP       0.291300
     13 O4          23.7120   -47.7050     5.1240 os         1 YGP      -0.430000
     14 C7          23.4720   -49.8210     6.0620 c5         1 YGP       0.092300
     15 O2          24.0690   -50.9910     6.6560 oh         1 YGP      -0.694000
     16 C3          23.2170   -50.0000     4.5370 c5         1 YGP       0.149300
     17 O3          24.3140   -50.7180     3.9560 oh         1 YGP      -0.697000
     18 C9          23.1450   -48.5050     4.0500 c5         1 YGP       0.161300
     19 C10         21.6980   -48.0100     3.7430 c3         1 YGP       0.220600
     20 O5          21.6620   -46.6240     3.3320 os         1 YGP      -0.620400
     21 PBG         22.4040   -46.1010     1.9960 p5         1 YGP       1.418800
     22 OAI         21.8120   -44.8130     1.5280 o          1 YGP      -0.806500
     23 OAF         22.3590   -47.1430     0.9280 o          1 YGP      -0.806500
     24 OAR         23.8960   -45.8930     2.5660 os         1 YGP      -0.494500
     25 CAW         24.3120   -45.1120     3.6020 cc         1 YGP       0.304100
     26 CAK         23.4570   -44.1900     4.2890 cc         1 YGP      -0.288000
     27 CAT         23.9700   -43.4480     5.3240 cd         1 YGP       0.056400
     28 CAA         23.2110   -42.4400     6.1440 c3         1 YGP      -0.063900
     29 NAO         25.2910   -43.6180     5.6720 ns         1 YGP      -0.376100
     30 CAX         26.1840   -44.4800     5.0820 c          1 YGP       0.556200
     31 OAD         27.3340   -44.5570     5.4870 o          1 YGP      -0.639000
     32 CAV         25.6380   -45.2800     3.9540 cd         1 YGP      -0.285400
     33 CAB         26.6120   -46.2510     3.3060 c3         1 YGP      -0.006900
     34 H1          26.0310   -51.8870     9.5810 hn         1 YGP       0.494500
     35 H2          26.1600   -51.4660    11.2340 hn         1 YGP       0.494500
     36 H3          26.3770   -49.3060    11.8180 hn         1 YGP       0.312500
     37 H4          24.0270   -45.8680     6.8460 h5         1 YGP       0.074100
     38 H5          25.3930   -48.8370     5.6130 h2         1 YGP       0.094700
     39 H6          22.5370   -49.5660     6.5820 h1         1 YGP       0.051700
     40 H7          24.5720   -50.6610     7.4560 ho         1 YGP       0.494000
     41 H8          22.2710   -50.5330     4.3570 h1         1 YGP       0.081700
     42 H9          24.6060   -51.3220     4.6820 ho         1 YGP       0.500000
     43 H10         23.7650   -48.3870     3.1530 h1         1 YGP       0.069700
     44 H11         21.2670   -48.6500     2.9610 h1         1 YGP       0.046700
     45 H12         21.0850   -48.1460     4.6440 h1         1 YGP       0.046700
     46 H14         22.4200   -44.0800     3.9970 ha         1 YGP       0.235000
     47 H16         22.1650   -42.3710     5.8230 hc         1 YGP       0.053367
     48 H17         23.2140   -42.7120     7.2060 hc         1 YGP       0.053367
     49 H18         23.6530   -41.4410     6.0490 hc         1 YGP       0.053367
     50 H19         26.2520   -46.6370     2.3440 hc         1 YGP       0.036033
     51 H20         27.5800   -45.7730     3.1090 hc         1 YGP       0.036033
     52 H21         26.7920   -47.1140     3.9590 hc         1 YGP       0.036033
     53 H15         25.6790   -43.0750     6.4330 hn         1 YGP       0.303500
@<TRIPOS>BOND
     1     1     2 1   
     2     1     7 1   
     3     1     8 2   
     4     2    34 1   
     5     2    35 1   
     6     3     4 2   
     7     3     8 1   
     8     3    11 1   
     9     4     5 1   
    10     4     9 1   
    11     5     6 2   
    12     5     7 1   
    13     7    36 1   
    14     9    10 2   
    15    10    11 1   
    16    10    37 1   
    17    11    12 1   
    18    12    13 1   
    19    12    14 1   
    20    12    38 1   
    21    13    18 1   
    22    14    15 1   
    23    14    16 1   
    24    14    39 1   
    25    15    40 1   
    26    16    17 1   
    27    16    18 1   
    28    16    41 1   
    29    17    42 1   
    30    18    19 1   
    31    18    43 1   
    32    19    20 1   
    33    19    44 1   
    34    19    45 1   
    35    20    21 1   
    36    21    22 1   
    37    21    23 1   
    38    21    24 1   
    39    24    25 1   
    40    25    26 1   
    41    25    32 2   
    42    26    27 2   
    43    26    46 1   
    44    27    28 1   
    45    27    29 1   
    46    28    47 1   
    47    28    48 1   
    48    28    49 1   
    49    29    30 1   
    50    29    53 1   
    51    30    31 2   
    52    30    32 1   
    53    32    33 1   
    54    33    50 1   
    55    33    51 1   
    56    33    52 1   
@<TRIPOS>SUBSTRUCTURE
     1 YGP         1 TEMP              0 ****  ****    0 ROOT
