@<TRIPOS>MOLECULE
YGR
   80    83     1     0     0
SMALL
abcg2


@<TRIPOS>ATOM
      1 C01        142.2530   169.1240    83.7320 c3         1 YGR       0.158900
      2 C03        141.7330   170.4080    81.8180 ca         1 YGR       0.622300
      3 C04        141.5200   170.4430    80.3990 ca         1 YGR      -0.131300
      4 C05        141.6290   169.1980    79.5480 c3         1 YGR       0.020900
      5 C06        140.3880   169.0810    78.6870 ca         1 YGR       0.009700
      6 C07        139.2210   168.6330    79.3060 ca         1 YGR      -0.018900
      7 C09        139.2770   166.9520    80.9440 c3         1 YGR       0.144900
      8 C10        138.0560   168.5470    78.5390 ca         1 YGR       0.608300
      9 C12        135.7610   168.0090    78.3800 c3         1 YGR       0.158900
     10 C14        139.1120   169.3140    76.6860 ca         1 YGR       0.618300
     11 C16        137.8410   169.5380    74.7040 c3         1 YGR       0.160900
     12 C17        140.3270   169.4490    77.3490 ca         1 YGR      -0.210000
     13 C18        142.9990   169.1190    78.7990 c3         1 YGR       0.242300
     14 C19        144.1310   168.9910    79.8370 c3         1 YGR      -0.108400
     15 C20        145.5140   168.7950    79.2260 c3         1 YGR       0.164800
     16 C22        147.8680   168.9460    79.5620 c3         1 YGR       0.148600
     17 C23        146.5290   167.8970    81.2230 c3         1 YGR       0.148600
     18 C25        143.0180   167.8910    77.9030 ca         1 YGR       0.021700
     19 C26        143.3750   167.9790    76.5660 ca         1 YGR      -0.218500
     20 C27        143.4110   166.8000    75.8250 ca         1 YGR       0.621800
     21 C29        143.8400   165.7090    73.7700 c3         1 YGR       0.162400
     22 C31        142.7870   165.5380    77.5960 ca         1 YGR       0.621800
     23 C33        142.5650   163.2030    77.2790 c3         1 YGR       0.162400
     24 C34        142.7200   166.6420    78.4390 ca         1 YGR      -0.218500
     25 C35        141.1980   171.6550    79.8660 ca         1 YGR      -0.036000
     26 C36        141.1040   172.8090    80.6830 ca         1 YGR      -0.120000
     27 C37        140.7810   174.0770    80.1630 ca         1 YGR      -0.044000
     28 C38        140.7010   175.1480    81.0130 ca         1 YGR      -0.034900
     29 C40        140.9360   175.0060    82.3930 ca         1 YGR      -0.070000
     30 C41        141.2490   173.7740    82.9050 ca         1 YGR      -0.096000
     31 C42        141.3410   172.6470    82.0630 ca         1 YGR       0.329000
     32 N13        138.0110   168.8730    77.2630 nb         1 YGR      -0.834000
     33 N21        146.5740   168.9290    80.2100 n3         1 YGR      -0.714600
     34 N30        143.1240   165.6110    76.3200 nb         1 YGR      -0.839000
     35 N43        141.6470   171.4410    82.5970 nb         1 YGR      -0.768000
     36 O02        142.0360   169.2210    82.3320 os         1 YGR      -0.462300
     37 O08        139.1980   168.3370    80.6350 os         1 YGR      -0.332100
     38 O11        136.9490   168.1200    79.1490 os         1 YGR      -0.448300
     39 O15        139.0730   169.6600    75.3950 os         1 YGR      -0.455300
     40 O24        143.2100   170.2480    77.9900 oh         1 YGR      -0.658000
     41 O28        143.7610   166.8980    74.5410 os         1 YGR      -0.459800
     42 O32        142.4940   164.3450    78.1180 os         1 YGR      -0.459800
     43 BR3        140.2670   176.8560    80.3340 br         1 YGR      -0.097100
     44 H1         142.4770   168.0780    83.9250 h1         1 YGR       0.049033
     45 H2         143.0930   169.7410    84.0530 h1         1 YGR       0.049033
     46 H3         141.3660   169.4170    84.2960 h1         1 YGR       0.049033
     47 H4         141.6210   168.3410    80.2190 hc         1 YGR       0.091700
     48 H5         139.3070   166.8680    82.0290 h1         1 YGR       0.035367
     49 H6         138.4110   166.4000    80.5730 h1         1 YGR       0.035367
     50 H7         140.1820   166.4970    80.5320 h1         1 YGR       0.035367
     51 H8         134.9990   167.6430    79.0640 h1         1 YGR       0.045033
     52 H9         135.4480   168.9710    77.9740 h1         1 YGR       0.045033
     53 H10        135.8750   167.3020    77.5570 h1         1 YGR       0.045033
     54 H11        138.0370   169.8640    73.6860 h1         1 YGR       0.044700
     55 H12        137.4810   168.5090    74.6880 h1         1 YGR       0.044700
     56 H13        137.0650   170.1710    75.1390 h1         1 YGR       0.044700
     57 H14        141.1850   169.8330    76.8190 ha         1 YGR       0.160000
     58 H15        144.1520   169.9010    80.4450 hc         1 YGR       0.060700
     59 H16        143.8970   168.1680    80.5140 hc         1 YGR       0.060700
     60 H17        145.5620   167.8180    78.7160 h1         1 YGR       0.040200
     61 H18        145.6790   169.5550    78.4590 h1         1 YGR       0.040200
     62 H19        148.6540   169.1060    80.3010 h1         1 YGR       0.030533
     63 H20        148.1000   168.0120    79.0250 h1         1 YGR       0.030533
     64 H21        147.9180   169.7630    78.8410 h1         1 YGR       0.030533
     65 H22        147.3710   168.0170    81.9060 h1         1 YGR       0.030533
     66 H23        145.6200   167.9660    81.8210 h1         1 YGR       0.030533
     67 H24        146.5800   166.8790    80.8050 h1         1 YGR       0.030533
     68 H25        143.6200   168.9180    76.0950 ha         1 YGR       0.146500
     69 H26        144.1590   166.0180    72.7780 h1         1 YGR       0.044367
     70 H27        144.5680   165.0070    74.1800 h1         1 YGR       0.044367
     71 H28        142.8750   165.2060    73.6980 h1         1 YGR       0.044367
     72 H29        142.2860   162.3580    77.9030 h1         1 YGR       0.044367
     73 H30        141.8750   163.2710    76.4370 h1         1 YGR       0.044367
     74 H31        143.5730   163.0440    76.8910 h1         1 YGR       0.044367
     75 H32        142.4520   166.5040    79.4770 ha         1 YGR       0.146500
     76 H33        140.9890   171.7540    78.8070 ha         1 YGR       0.137000
     77 H34        140.6020   174.1830    79.1000 ha         1 YGR       0.132000
     78 H35        140.8690   175.8620    83.0510 ha         1 YGR       0.131000
     79 H36        141.4300   173.6530    83.9650 ha         1 YGR       0.133000
     80 H38        143.4690   170.9900    78.5470 ho         1 YGR       0.458000
@<TRIPOS>BOND
     1     1    36 1   
     2     1    44 1   
     3     1    45 1   
     4     1    46 1   
     5     2     3 ar  
     6     2    35 ar  
     7     2    36 1   
     8     3     4 1   
     9     3    25 ar  
    10     4     5 1   
    11     4    13 1   
    12     4    47 1   
    13     5     6 ar  
    14     5    12 ar  
    15     6     8 ar  
    16     6    37 1   
    17     7    37 1   
    18     7    48 1   
    19     7    49 1   
    20     7    50 1   
    21     8    32 ar  
    22     8    38 1   
    23     9    38 1   
    24     9    51 1   
    25     9    52 1   
    26     9    53 1   
    27    10    12 ar  
    28    10    32 ar  
    29    10    39 1   
    30    11    39 1   
    31    11    54 1   
    32    11    55 1   
    33    11    56 1   
    34    12    57 1   
    35    13    14 1   
    36    13    18 1   
    37    13    40 1   
    38    14    15 1   
    39    14    58 1   
    40    14    59 1   
    41    15    33 1   
    42    15    60 1   
    43    15    61 1   
    44    16    33 1   
    45    16    62 1   
    46    16    63 1   
    47    16    64 1   
    48    17    33 1   
    49    17    65 1   
    50    17    66 1   
    51    17    67 1   
    52    18    19 ar  
    53    18    24 ar  
    54    19    20 ar  
    55    19    68 1   
    56    20    34 ar  
    57    20    41 1   
    58    21    41 1   
    59    21    69 1   
    60    21    70 1   
    61    21    71 1   
    62    22    24 ar  
    63    22    34 ar  
    64    22    42 1   
    65    23    42 1   
    66    23    72 1   
    67    23    73 1   
    68    23    74 1   
    69    24    75 1   
    70    25    26 ar  
    71    25    76 1   
    72    26    27 ar  
    73    26    31 ar  
    74    27    28 ar  
    75    27    77 1   
    76    28    29 ar  
    77    28    43 1   
    78    29    30 ar  
    79    29    78 1   
    80    30    31 ar  
    81    30    79 1   
    82    31    35 ar  
    83    40    80 1   
@<TRIPOS>SUBSTRUCTURE
     1 YGR         1 TEMP              0 ****  ****    0 ROOT
