@<TRIPOS>MOLECULE
YGR
   80    83     1     0     0
SMALL
No Charge or Current Charge


@<TRIPOS>ATOM
      1 C01        142.7150   169.3120    83.8710 c3         1 YGR       0.158900
      2 C03        141.8550   170.5220    81.9070 ca         1 YGR       0.622300
      3 C04        141.5310   170.5120    80.5260 ca         1 YGR      -0.131300
      4 C05        141.6900   169.1990    79.6840 c3         1 YGR       0.020900
      5 C06        140.4400   168.9860    78.7940 ca         1 YGR       0.009700
      6 C07        139.2660   168.4070    79.3350 ca         1 YGR      -0.018900
      7 C09        138.2020   167.4950    81.4240 c3         1 YGR       0.144900
      8 C10        138.1350   168.2320    78.4670 ca         1 YGR       0.608300
      9 C12        135.8160   167.4690    78.1020 c3         1 YGR       0.158900
     10 C14        139.2560   169.1670    76.6760 ca         1 YGR       0.618300
     11 C16        138.1560   169.3750    74.4930 c3         1 YGR       0.160900
     12 C17        140.4010   169.3780    77.4430 ca         1 YGR      -0.210000
     13 C18        143.1090   169.1040    78.9520 c3         1 YGR       0.242300
     14 C19        144.3390   168.9410    79.9300 c3         1 YGR      -0.108400
     15 C20        145.7100   168.7680    79.2270 c3         1 YGR       0.164800
     16 C22        148.1600   168.8510    79.4060 c3         1 YGR       0.148600
     17 C23        146.8760   167.6850    81.1410 c3         1 YGR       0.148600
     18 C25        143.1060   167.9060    77.9720 ca         1 YGR       0.021700
     19 C26        143.4790   168.0250    76.6190 ca         1 YGR      -0.218500
     20 C27        143.4500   166.9050    75.7820 ca         1 YGR       0.621800
     21 C29        143.8100   165.9880    73.5350 c3         1 YGR       0.162400
     22 C31        142.7360   165.5500    77.4990 ca         1 YGR       0.621800
     23 C33        142.3230   163.1620    77.1180 c3         1 YGR       0.162400
     24 C34        142.7370   166.6180    78.4020 ca         1 YGR      -0.218500
     25 C35        141.0450   171.7290    79.9640 ca         1 YGR      -0.036000
     26 C36        140.9190   172.8610    80.7830 ca         1 YGR      -0.120000
     27 C37        140.4420   174.0730    80.2450 ca         1 YGR      -0.044000
     28 C38        140.3180   175.2020    81.0690 ca         1 YGR      -0.034900
     29 C40        140.6690   175.1250    82.4260 ca         1 YGR      -0.070000
     30 C41        141.1440   173.9130    82.9570 ca         1 YGR      -0.096000
     31 C42        141.2750   172.7690    82.1480 ca         1 YGR       0.329000
     32 N13        138.1460   168.6040    77.1700 nb         1 YGR      -0.834000
     33 N21        146.8790   168.7830    80.1440 n3         1 YGR      -0.714600
     34 N30        143.0840   165.6840    76.2080 nb         1 YGR      -0.839000
     35 N43        141.7330   171.6210    82.6870 nb         1 YGR      -0.768000
     36 O02        142.3330   169.3650    82.4830 os         1 YGR      -0.462300
     37 O08        139.3020   168.0580    80.6880 os         1 YGR      -0.332100
     38 O11        136.9710   167.6620    78.9430 os         1 YGR      -0.448300
     39 O15        139.2900   169.5650    75.3610 os         1 YGR      -0.455300
     40 O24        143.3270   170.3350    78.2450 oh         1 YGR      -0.658000
     41 O28        143.8180   167.0840    74.4700 os         1 YGR      -0.459800
     42 O32        142.3610   164.3180    77.9770 os         1 YGR      -0.459800
     43 Br3        139.6720   176.8490    80.3420 br         1 YGR      -0.097100
     44 H1         143.0700   168.3070    84.1310 h1         1 YGR       0.049033
     45 H2         143.5260   170.0220    84.0820 h1         1 YGR       0.049033
     46 H3         141.8640   169.5500    84.5220 h1         1 YGR       0.049033
     47 H4         141.7020   168.3530    80.3780 hc         1 YGR       0.091700
     48 H5         138.4940   167.3320    82.4690 h1         1 YGR       0.035367
     49 H6         137.3390   168.1730    81.4190 h1         1 YGR       0.035367
     50 H7         137.9040   166.5250    81.0060 h1         1 YGR       0.035367
     51 H8         135.0040   167.0030    78.6720 h1         1 YGR       0.045033
     52 H9         135.4500   168.4280    77.7120 h1         1 YGR       0.045033
     53 H10        136.0540   166.8140    77.2530 h1         1 YGR       0.045033
     54 H11        138.3780   169.7540    73.4880 h1         1 YGR       0.044700
     55 H12        137.9020   168.3100    74.4070 h1         1 YGR       0.044700
     56 H13        137.2770   169.9130    74.8730 h1         1 YGR       0.044700
     57 H14        141.2470   169.8520    76.9610 ha         1 YGR       0.160000
     58 H15        144.3950   169.8130    80.5930 hc         1 YGR       0.060700
     59 H16        144.1540   168.0730    80.5720 hc         1 YGR       0.060700
     60 H17        145.7020   167.8310    78.6550 h1         1 YGR       0.040200
     61 H18        145.8210   169.5830    78.4990 h1         1 YGR       0.040200
     62 H19        149.0050   168.9450    80.1010 h1         1 YGR       0.030533
     63 H20        148.3120   167.9470    78.8000 h1         1 YGR       0.030533
     64 H21        148.1770   169.7210    78.7360 h1         1 YGR       0.030533
     65 H22        147.7690   167.7390    81.7780 h1         1 YGR       0.030533
     66 H23        146.0010   167.7470    81.8000 h1         1 YGR       0.030533
     67 H24        146.8690   166.7050    80.6450 h1         1 YGR       0.030533
     68 H25        143.7900   168.9750    76.1990 ha         1 YGR       0.146500
     69 H26        144.1330   166.3300    72.5430 h1         1 YGR       0.044367
     70 H27        144.4940   165.1920    73.8580 h1         1 YGR       0.044367
     71 H28        142.8020   165.5650    73.4360 h1         1 YGR       0.044367
     72 H29        142.0000   162.2780    77.6820 h1         1 YGR       0.044367
     73 H30        141.6180   163.3130    76.2900 h1         1 YGR       0.044367
     74 H31        143.3160   162.9530    76.6980 h1         1 YGR       0.044367
     75 H32        142.4530   166.4240    79.4300 ha         1 YGR       0.146500
     76 H33        140.7750   171.7820    78.9120 ha         1 YGR       0.137000
     77 H34        140.1690   174.1400    79.1940 ha         1 YGR       0.132000
     78 H35        140.5730   176.0000    83.0660 ha         1 YGR       0.131000
     79 H36        141.4140   173.8560    84.0080 ha         1 YGR       0.133000
     80 H38        143.3980   171.0430    78.9180 ho         1 YGR       0.458000
@<TRIPOS>BOND
     1     1    36 1   
     2     1    44 1   
     3     1    45 1   
     4     1    46 1   
     5     2     3 ar  
     6     2    35 ar  
     7     2    36 1   
     8     3     4 1   
     9     3    25 ar  
    10     4     5 1   
    11     4    13 1   
    12     4    47 1   
    13     5     6 ar  
    14     5    12 ar  
    15     6     8 ar  
    16     6    37 1   
    17     7    37 1   
    18     7    48 1   
    19     7    49 1   
    20     7    50 1   
    21     8    32 ar  
    22     8    38 1   
    23     9    38 1   
    24     9    51 1   
    25     9    52 1   
    26     9    53 1   
    27    10    12 ar  
    28    10    32 ar  
    29    10    39 1   
    30    11    39 1   
    31    11    54 1   
    32    11    55 1   
    33    11    56 1   
    34    12    57 1   
    35    13    14 1   
    36    13    18 1   
    37    13    40 1   
    38    14    15 1   
    39    14    58 1   
    40    14    59 1   
    41    15    33 1   
    42    15    60 1   
    43    15    61 1   
    44    16    33 1   
    45    16    62 1   
    46    16    63 1   
    47    16    64 1   
    48    17    33 1   
    49    17    65 1   
    50    17    66 1   
    51    17    67 1   
    52    18    19 ar  
    53    18    24 ar  
    54    19    20 ar  
    55    19    68 1   
    56    20    34 ar  
    57    20    41 1   
    58    21    41 1   
    59    21    69 1   
    60    21    70 1   
    61    21    71 1   
    62    22    24 ar  
    63    22    34 ar  
    64    22    42 1   
    65    23    42 1   
    66    23    72 1   
    67    23    73 1   
    68    23    74 1   
    69    24    75 1   
    70    25    26 ar  
    71    25    76 1   
    72    26    27 ar  
    73    26    31 ar  
    74    27    28 ar  
    75    27    77 1   
    76    28    29 ar  
    77    28    43 1   
    78    29    30 ar  
    79    29    78 1   
    80    30    31 ar  
    81    30    79 1   
    82    31    35 ar  
    83    40    80 1   
@<TRIPOS>SUBSTRUCTURE
     1 YGR         1 TEMP              0 ****  ****    0 ROOT
