@<TRIPOS>MOLECULE
YGS
   22    22     1     0     0
SMALL
No Charge or Current Charge


@<TRIPOS>ATOM
      1 C10         40.2010   -19.5390    11.4360 ca         1 YGS      -0.106500
      2 C01         37.3540   -19.0920    14.0390 c2         1 YGS      -0.325000
      3 C02         38.6280   -19.4630    14.2430 c2         1 YGS      -0.108400
      4 C03         39.5470   -18.7570    15.2240 c3         1 YGS      -0.056900
      5 C04         39.2760   -20.6420    13.5300 c3         1 YGS       0.002100
      6 C05         40.4430   -20.2300    12.6400 ca         1 YGS      -0.075300
      7 C06         41.7690   -20.5290    13.0100 ca         1 YGS      -0.106500
      8 C07         42.8400   -20.1430    12.1850 ca         1 YGS      -0.110000
      9 C08         42.5920   -19.4540    10.9860 ca         1 YGS      -0.112000
     10 C09         41.2720   -19.1520    10.6120 ca         1 YGS      -0.110000
     11 H1          39.1810   -19.2990    11.1430 ha         1 YGS       0.111500
     12 H2          36.9110   -18.2470    14.5690 ha         1 YGS       0.162500
     13 H3          36.7080   -19.6160    13.3350 ha         1 YGS       0.162500
     14 H4          39.0300   -17.9450    15.7490 hc         1 YGS       0.041700
     15 H5          39.9240   -19.4530    15.9840 hc         1 YGS       0.041700
     16 H6          40.4130   -18.3170    14.7140 hc         1 YGS       0.041700
     17 H7          38.5310   -21.1650    12.9180 hc         1 YGS       0.052200
     18 H8          39.6070   -21.3800    14.2720 hc         1 YGS       0.052200
     19 H9          41.9720   -21.0590    13.9380 ha         1 YGS       0.111500
     20 H10         43.8620   -20.3760    12.4770 ha         1 YGS       0.111000
     21 H11         43.4210   -19.1550    10.3480 ha         1 YGS       0.111000
     22 H12         41.0780   -18.6180     9.6840 ha         1 YGS       0.111000
@<TRIPOS>BOND
     1     1     6 ar  
     2     1    10 ar  
     3     1    11 1   
     4     2     3 2   
     5     2    12 1   
     6     2    13 1   
     7     3     4 1   
     8     3     5 1   
     9     4    14 1   
    10     4    15 1   
    11     4    16 1   
    12     5     6 1   
    13     5    17 1   
    14     5    18 1   
    15     6     7 ar  
    16     7     8 ar  
    17     7    19 1   
    18     8     9 ar  
    19     8    20 1   
    20     9    10 ar  
    21     9    21 1   
    22    10    22 1   
@<TRIPOS>SUBSTRUCTURE
     1 YGS         1 TEMP              0 ****  ****    0 ROOT
