@<TRIPOS>MOLECULE
YGS
   22    22     1     0     0
SMALL
abcg2


@<TRIPOS>ATOM
      1 C10         40.2200   -19.4710    11.5380 ca         1 YGS      -0.106500
      2 C01         37.3790   -19.1570    13.9900 c2         1 YGS      -0.325000
      3 C02         38.6510   -19.4700    14.2310 c2         1 YGS      -0.108400
      4 C03         39.5110   -18.6790    15.1690 c3         1 YGS      -0.056900
      5 C04         39.3110   -20.6500    13.5670 c3         1 YGS       0.002100
      6 C05         40.4590   -20.2420    12.6750 ca         1 YGS      -0.075300
      7 C06         41.7680   -20.6140    12.9630 ca         1 YGS      -0.106500
      8 C07         42.8170   -20.2280    12.1350 ca         1 YGS      -0.110000
      9 C08         42.5670   -19.4610    11.0060 ca         1 YGS      -0.112000
     10 C09         41.2630   -19.0840    10.7100 ca         1 YGS      -0.110000
     11 H1          39.2060   -19.1710    11.3010 ha         1 YGS       0.111500
     12 H2          36.9030   -18.3100    14.4690 ha         1 YGS       0.162500
     13 H3          36.7700   -19.7390    13.3090 ha         1 YGS       0.162500
     14 H4          38.9580   -17.8670    15.6390 hc         1 YGS       0.041700
     15 H5          39.9150   -19.3200    15.9560 hc         1 YGS       0.041700
     16 H6          40.3690   -18.2490    14.6480 hc         1 YGS       0.041700
     17 H7          38.5710   -21.2020    12.9830 hc         1 YGS       0.052200
     18 H8          39.6830   -21.3330    14.3370 hc         1 YGS       0.052200
     19 H9          41.9710   -21.2130    13.8430 ha         1 YGS       0.111500
     20 H10         43.8290   -20.5280    12.3750 ha         1 YGS       0.111000
     21 H11         43.3820   -19.1600    10.3610 ha         1 YGS       0.111000
     22 H12         41.0580   -18.4850     9.8310 ha         1 YGS       0.111000
@<TRIPOS>BOND
     1     1     6 ar  
     2     1    10 ar  
     3     1    11 1   
     4     2     3 2   
     5     2    12 1   
     6     2    13 1   
     7     3     4 1   
     8     3     5 1   
     9     4    14 1   
    10     4    15 1   
    11     4    16 1   
    12     5     6 1   
    13     5    17 1   
    14     5    18 1   
    15     6     7 ar  
    16     7     8 ar  
    17     7    19 1   
    18     8     9 ar  
    19     8    20 1   
    20     9    10 ar  
    21     9    21 1   
    22    10    22 1   
@<TRIPOS>SUBSTRUCTURE
     1 YGS         1 TEMP              0 ****  ****    0 ROOT
