@<TRIPOS>MOLECULE
YGV
   16    16     1     0     0
SMALL
No Charge or Current Charge


@<TRIPOS>ATOM
      1 C01        -35.4860    23.2590   -13.1140 c3         1 YGV       0.005900
      2 C03        -37.3420    25.4030   -12.4220 ca         1 YGV      -0.092000
      3 C04        -36.5050    25.5760   -11.2970 ca         1 YGV      -0.117000
      4 C05        -36.7950    26.5630   -10.3390 ca         1 YGV      -0.095000
      5 C06        -37.9220    27.3870   -10.4910 ca         1 YGV      -0.111000
      6 C07        -38.7600    27.2230   -11.6050 ca         1 YGV      -0.089000
      7 C08        -38.4740    26.2380   -12.5660 ca         1 YGV       0.122000
      8 S02        -37.0050    24.1490   -13.6750 ss         1 YGV      -0.117000
      9 Cl09       -39.5570    26.0710   -13.9490 cl         1 YGV      -0.187000
     10 H1         -35.2370    22.4750   -13.8380 h1         1 YGV       0.066700
     11 H2         -34.6470    23.9620   -13.0450 h1         1 YGV       0.066700
     12 H3         -35.6650    22.7990   -12.1340 h1         1 YGV       0.066700
     13 H4         -35.6250    24.9580   -11.1470 ha         1 YGV       0.116000
     14 H5         -36.1450    26.6890    -9.4760 ha         1 YGV       0.116000
     15 H6         -38.1440    28.1500    -9.7480 ha         1 YGV       0.120000
     16 H7         -39.6330    27.8590   -11.7260 ha         1 YGV       0.129000
@<TRIPOS>BOND
     1     1     8 1   
     2     1    10 1   
     3     1    11 1   
     4     1    12 1   
     5     2     3 ar  
     6     2     7 ar  
     7     2     8 1   
     8     3     4 ar  
     9     3    13 1   
    10     4     5 ar  
    11     4    14 1   
    12     5     6 ar  
    13     5    15 1   
    14     6     7 ar  
    15     6    16 1   
    16     7     9 1   
@<TRIPOS>SUBSTRUCTURE
     1 YGV         1 TEMP              0 ****  ****    0 ROOT
