@<TRIPOS>MOLECULE
YGV
   16    16     1     0     0
SMALL
bcc


@<TRIPOS>ATOM
      1 C01        -35.5420    23.3360   -13.0810 c3         1 YGV      -0.042000
      2 C03        -37.3120    25.3830   -12.4150 ca         1 YGV       0.034900
      3 C04        -36.4990    25.5690   -11.2980 ca         1 YGV      -0.135000
      4 C05        -36.7950    26.5440   -10.3570 ca         1 YGV      -0.113000
      5 C06        -37.9080    27.3570   -10.5120 ca         1 YGV      -0.129000
      6 C07        -38.7290    27.1890   -11.6170 ca         1 YGV      -0.107000
      7 C08        -38.4290    26.2120   -12.5500 ca         1 YGV       0.030400
      8 S02        -37.0250    24.1770   -13.6620 ss         1 YGV      -0.196000
      9 CL09       -39.4690    26.0130   -13.9220 cl         1 YGV      -0.095400
     10 H1         -35.3370    22.5640   -13.8200 h1         1 YGV       0.066700
     11 H2         -34.6850    24.0060   -13.0320 h1         1 YGV       0.066700
     12 H3         -35.7010    22.8590   -12.1160 h1         1 YGV       0.066700
     13 H4         -35.6240    24.9510   -11.1530 ha         1 YGV       0.134000
     14 H5         -36.1460    26.6660    -9.5000 ha         1 YGV       0.134000
     15 H6         -38.1410    28.1200    -9.7810 ha         1 YGV       0.138000
     16 H7         -39.6010    27.8140   -11.7560 ha         1 YGV       0.147000
@<TRIPOS>BOND
     1     1     8 1   
     2     1    10 1   
     3     1    11 1   
     4     1    12 1   
     5     2     3 ar  
     6     2     7 ar  
     7     2     8 1   
     8     3     4 ar  
     9     3    13 1   
    10     4     5 ar  
    11     4    14 1   
    12     5     6 ar  
    13     5    15 1   
    14     6     7 ar  
    15     6    16 1   
    16     7     9 1   
@<TRIPOS>SUBSTRUCTURE
     1 YGV         1 TEMP              0 ****  ****    0 ROOT
