@<TRIPOS>MOLECULE
YGW
   53    55     1     0     0
SMALL
No Charge or Current Charge


@<TRIPOS>ATOM
      1 C01        185.4150   -67.0040   291.6700 ca         1 YGW      -0.170000
      2 C02        184.6880   -68.2090   291.6360 ca         1 YGW      -0.089000
      3 C03        185.2190   -69.3610   292.2360 ca         1 YGW       0.088000
      4 C04        186.4750   -69.3040   292.8680 ca         1 YGW       0.166000
      5 C05        187.1970   -68.1010   292.9010 ca         1 YGW      -0.183000
      6 C06        186.6740   -66.9410   292.3040 ca         1 YGW       0.319000
      7 N07        187.4180   -65.7400   292.3460 nh         1 YGW      -0.792400
      8 C08        187.8670   -65.1780   293.6610 c6         1 YGW       0.200300
      9 C09        189.0940   -64.2210   293.5160 c6         1 YGW       0.156800
     10 N10        188.8690   -63.1350   292.5120 n3         1 YGW      -0.701600
     11 C11        188.4930   -63.7400   291.1940 c6         1 YGW       0.156800
     12 C12        187.2530   -64.6870   291.2930 c6         1 YGW       0.200300
     13 C13        190.0270   -62.1830   292.4210 c3         1 YGW       0.070800
     14 C14        189.8680   -60.8900   291.5650 c          1 YGW       0.575100
     15 C15        191.1770   -60.2670   291.0420 c3         1 YGW       0.048600
     16 O16        192.2040   -60.2580   292.0620 os         1 YGW      -0.354100
     17 C17        193.4700   -59.7630   291.8290 ca         1 YGW       0.124100
     18 C18        193.8620   -59.2260   290.5840 ca         1 YGW      -0.136500
     19 C19        195.1700   -58.7360   290.4080 ca         1 YGW      -0.092000
     20 C20        196.1020   -58.7720   291.4670 ca         1 YGW       0.262000
     21 C21        195.7030   -59.3170   292.7010 ca         1 YGW      -0.092000
     22 C22        194.3960   -59.8070   292.8820 ca         1 YGW      -0.136500
     23 N23        197.4100   -58.3000   291.3430 nu         1 YGW      -0.931100
     24 S24        198.0460   -57.1890   290.2880 s6         1 YGW       1.230100
     25 C25        197.0320   -55.7380   290.4750 c3         1 YGW      -0.355100
     26 O26        199.3830   -56.9050   290.8110 o          1 YGW      -0.541500
     27 O27        197.8750   -57.7430   288.9440 o          1 YGW      -0.541500
     28 O28        188.7740   -60.3980   291.2980 o          1 YGW      -0.497100
     29 F29        186.9980   -70.4100   293.4460 f          1 YGW      -0.167000
     30 F30        184.5190   -70.5180   292.2020 f          1 YGW      -0.168000
     31 H1         184.9870   -66.1180   291.2110 ha         1 YGW       0.122000
     32 H2         183.7160   -68.2490   291.1480 ha         1 YGW       0.133000
     33 H3         188.1700   -68.0770   293.3800 ha         1 YGW       0.135000
     34 H4         188.1390   -65.9820   294.3590 h1         1 YGW       0.050450
     35 H5         187.0400   -64.6190   294.1220 h1         1 YGW       0.050450
     36 H6         189.9700   -64.8220   293.2290 h1         1 YGW       0.045200
     37 H7         189.3140   -63.7870   294.5020 h1         1 YGW       0.045200
     38 H9         189.3380   -64.3180   290.7920 h1         1 YGW       0.045200
     39 H10        188.2650   -62.9550   290.4580 h1         1 YGW       0.045200
     40 H11        186.3640   -64.0780   291.5120 h1         1 YGW       0.050450
     41 H12        187.0980   -65.1530   290.3090 h1         1 YGW       0.050450
     42 H13        190.9070   -62.7120   292.0320 h1         1 YGW       0.066700
     43 H14        190.3000   -61.8350   293.4260 h1         1 YGW       0.066700
     44 H15        191.4980   -60.8650   290.1800 h1         1 YGW       0.067200
     45 H16        190.9540   -59.2480   290.7030 h1         1 YGW       0.067200
     46 H17        193.1720   -59.1810   289.7460 ha         1 YGW       0.127500
     47 H18        195.4470   -58.3380   289.4370 ha         1 YGW       0.119500
     48 H19        196.4060   -59.3600   293.5280 ha         1 YGW       0.119500
     49 H20        194.1010   -60.2230   293.8410 ha         1 YGW       0.127500
     50 H21        197.9820   -58.2400   292.1760 hn         1 YGW       0.502000
     51 H22        197.0850   -55.4330   291.5250 h1         1 YGW       0.104700
     52 H23        197.4420   -54.9670   289.8160 h1         1 YGW       0.104700
     53 H24        196.0110   -56.0030   290.1880 h1         1 YGW       0.104700
@<TRIPOS>BOND
     1     1     2 ar  
     2     1     6 ar  
     3     1    31 1   
     4     2     3 ar  
     5     2    32 1   
     6     3     4 ar  
     7     3    30 1   
     8     4     5 ar  
     9     4    29 1   
    10     5     6 ar  
    11     5    33 1   
    12     6     7 1   
    13     7     8 1   
    14     7    12 1   
    15     8     9 1   
    16     8    34 1   
    17     8    35 1   
    18     9    10 1   
    19     9    36 1   
    20     9    37 1   
    21    10    11 1   
    22    10    13 1   
    23    11    12 1   
    24    11    38 1   
    25    11    39 1   
    26    12    40 1   
    27    12    41 1   
    28    13    14 1   
    29    13    42 1   
    30    13    43 1   
    31    14    15 1   
    32    14    28 2   
    33    15    16 1   
    34    15    44 1   
    35    15    45 1   
    36    16    17 1   
    37    17    18 ar  
    38    17    22 ar  
    39    18    19 ar  
    40    18    46 1   
    41    19    20 ar  
    42    19    47 1   
    43    20    21 ar  
    44    20    23 1   
    45    21    22 ar  
    46    21    48 1   
    47    22    49 1   
    48    23    24 1   
    49    23    50 1   
    50    24    25 1   
    51    24    26 2   
    52    24    27 2   
    53    25    51 1   
    54    25    52 1   
    55    25    53 1   
@<TRIPOS>SUBSTRUCTURE
     1 YGW         1 TEMP              0 ****  ****    0 ROOT
