@<TRIPOS>MOLECULE
YGW
   53    55     1     0     0
SMALL
abcg2


@<TRIPOS>ATOM
      1 C01        185.9380   -67.1280   291.2290 ca         1 YGW      -0.170000
      2 C02        185.1740   -68.2910   291.1970 ca         1 YGW      -0.089000
      3 C03        185.3310   -69.2480   292.1760 ca         1 YGW       0.088000
      4 C04        186.2560   -69.0370   293.1860 ca         1 YGW       0.166000
      5 C05        187.0290   -67.8990   293.2310 ca         1 YGW      -0.183000
      6 C06        186.8910   -66.9090   292.2390 ca         1 YGW       0.319000
      7 N07        187.7140   -65.7810   292.2550 nh         1 YGW      -0.792400
      8 C08        187.9880   -65.1510   293.5490 c6         1 YGW       0.200300
      9 C09        189.1790   -64.2160   293.4590 c6         1 YGW       0.156800
     10 N10        188.9630   -63.2020   292.4310 n3         1 YGW      -0.701600
     11 C11        188.7440   -63.8540   291.1430 c6         1 YGW       0.156800
     12 C12        187.5530   -64.7950   291.1930 c6         1 YGW       0.200300
     13 C13        190.0610   -62.2640   292.3830 c3         1 YGW       0.070800
     14 C14        189.7450   -60.9680   291.6770 c          1 YGW       0.575100
     15 C15        190.8880   -59.9900   291.4740 c3         1 YGW       0.048600
     16 O16        192.0120   -60.3680   292.2500 os         1 YGW      -0.354100
     17 C17        193.1950   -59.7180   292.0410 ca         1 YGW       0.124100
     18 C18        193.3460   -58.6110   291.2080 ca         1 YGW      -0.136500
     19 C19        194.5960   -58.0150   291.0720 ca         1 YGW      -0.092000
     20 C20        195.7030   -58.5280   291.7370 ca         1 YGW       0.262000
     21 C21        195.5440   -59.6390   292.5680 ca         1 YGW      -0.092000
     22 C22        194.2990   -60.2210   292.7300 ca         1 YGW      -0.136500
     23 N23        196.9860   -57.9300   291.6150 nu         1 YGW      -0.931100
     24 S24        197.7540   -57.6760   290.1720 s6         1 YGW       1.230100
     25 C25        197.5720   -55.9410   289.8700 c3         1 YGW      -0.355100
     26 O26        199.1550   -57.9430   290.4120 o          1 YGW      -0.541500
     27 O27        197.0640   -58.3940   289.1250 o          1 YGW      -0.541500
     28 O28        188.6490   -60.6760   291.2500 o          1 YGW      -0.497100
     29 F29        186.4090   -69.9830   294.1410 f          1 YGW      -0.167000
     30 F30        184.5920   -70.3840   292.1710 f          1 YGW      -0.168000
     31 H1         185.7720   -66.3930   290.4590 ha         1 YGW       0.122000
     32 H2         184.4430   -68.4470   290.4140 ha         1 YGW       0.133000
     33 H3         187.7530   -67.8150   294.0280 ha         1 YGW       0.135000
     34 H4         188.2050   -65.9080   294.2970 h1         1 YGW       0.050450
     35 H5         187.1050   -64.5870   293.8850 h1         1 YGW       0.050450
     36 H6         190.0880   -64.8060   293.2510 h1         1 YGW       0.045200
     37 H7         189.3140   -63.7220   294.4220 h1         1 YGW       0.045200
     38 H9         189.6410   -64.4210   290.8420 h1         1 YGW       0.045200
     39 H10        188.5570   -63.0960   290.3840 h1         1 YGW       0.045200
     40 H11        186.6280   -64.2150   291.3290 h1         1 YGW       0.050450
     41 H12        187.4910   -65.3070   290.2340 h1         1 YGW       0.050450
     42 H13        190.9700   -62.6860   291.9210 h1         1 YGW       0.066700
     43 H14        190.3590   -61.9920   293.4010 h1         1 YGW       0.066700
     44 H15        191.1320   -59.9990   290.4040 h1         1 YGW       0.067200
     45 H16        190.5390   -58.9880   291.7360 h1         1 YGW       0.067200
     46 H17        192.5060   -58.1930   290.6740 ha         1 YGW       0.127500
     47 H18        194.6960   -57.1450   290.4380 ha         1 YGW       0.119500
     48 H19        196.4030   -60.0460   293.0870 ha         1 YGW       0.119500
     49 H20        194.1720   -61.0800   293.3760 ha         1 YGW       0.127500
     50 H21        197.6530   -58.1660   292.3390 hn         1 YGW       0.502000
     51 H22        198.0290   -55.4020   290.6970 h1         1 YGW       0.104700
     52 H23        198.0860   -55.7250   288.9340 h1         1 YGW       0.104700
     53 H24        196.5130   -55.7060   289.7900 h1         1 YGW       0.104700
@<TRIPOS>BOND
     1     1     2 ar  
     2     1     6 ar  
     3     1    31 1   
     4     2     3 ar  
     5     2    32 1   
     6     3     4 ar  
     7     3    30 1   
     8     4     5 ar  
     9     4    29 1   
    10     5     6 ar  
    11     5    33 1   
    12     6     7 1   
    13     7     8 1   
    14     7    12 1   
    15     8     9 1   
    16     8    34 1   
    17     8    35 1   
    18     9    10 1   
    19     9    36 1   
    20     9    37 1   
    21    10    11 1   
    22    10    13 1   
    23    11    12 1   
    24    11    38 1   
    25    11    39 1   
    26    12    40 1   
    27    12    41 1   
    28    13    14 1   
    29    13    42 1   
    30    13    43 1   
    31    14    15 1   
    32    14    28 2   
    33    15    16 1   
    34    15    44 1   
    35    15    45 1   
    36    16    17 1   
    37    17    18 ar  
    38    17    22 ar  
    39    18    19 ar  
    40    18    46 1   
    41    19    20 ar  
    42    19    47 1   
    43    20    21 ar  
    44    20    23 1   
    45    21    22 ar  
    46    21    48 1   
    47    22    49 1   
    48    23    24 1   
    49    23    50 1   
    50    24    25 1   
    51    24    26 2   
    52    24    27 2   
    53    25    51 1   
    54    25    52 1   
    55    25    53 1   
@<TRIPOS>SUBSTRUCTURE
     1 YGW         1 TEMP              0 ****  ****    0 ROOT
