@<TRIPOS>MOLECULE
YGX
   27    27     1     0     0
SMALL
abcg2


@<TRIPOS>ATOM
      1 O4          65.0600    28.2880    34.0480 oh         1 YGX      -0.704000
      2 O7          62.6970    27.3510    35.8020 oh         1 YGX      -0.704000
      3 C1          61.4200    28.6670    34.2470 c6         1 YGX       0.157300
      4 C2          62.2670    28.3460    33.0230 c6         1 YGX       0.187300
      5 O2          61.4660    28.2730    31.8460 oh         1 YGX      -0.717000
      6 C3          63.3500    29.3960    32.8280 c6         1 YGX       0.157300
      7 C4          64.2580    29.4720    34.0630 c6         1 YGX       0.155800
      8 C5          63.4380    29.6780    35.3500 c6         1 YGX      -0.121700
      9 C6          64.3380    29.7390    36.5730 c3         1 YGX       0.158600
     10 C7          62.2710    28.6850    35.5180 c6         1 YGX       0.155800
     11 O1          60.3740    27.6950    34.2980 oh         1 YGX      -0.715500
     12 O3          62.7300    30.6580    32.5880 oh         1 YGX      -0.715500
     13 H1          65.7850    28.3890    34.6760 ho         1 YGX       0.499000
     14 HO7         62.9550    27.3070    36.7300 ho         1 YGX       0.499000
     15 H1'1        60.9880    29.6630    34.1200 h1         1 YGX       0.063700
     16 H2          62.7680    27.3870    33.1900 h1         1 YGX       0.081700
     17 HO2         60.6770    27.7680    32.0860 ho         1 YGX       0.520000
     18 H3          63.9640    29.1100    31.9680 h1         1 YGX       0.063700
     19 H4          64.9070    30.3460    33.9360 h1         1 YGX       0.035200
     20 H5          62.9790    30.6670    35.2420 hc         1 YGX       0.078700
     21 HO6         64.1060    30.0800    38.4890 ho         1 YGX       0.446000
     22 H6'2        64.7950    28.7620    36.7630 h1         1 YGX       0.024200
     23 H6'1        65.1450    30.4580    36.3920 h1         1 YGX       0.024200
     24 H7          61.6400    29.0380    36.3390 h1         1 YGX       0.035200
     25 H8          59.6480    28.0500    34.8250 ho         1 YGX       0.502500
     26 H9          63.4190    31.2940    32.3620 ho         1 YGX       0.502500
     27 O6          63.5540    30.1410    37.7000 oh         1 YGX      -0.670000
@<TRIPOS>BOND
     1     1     7 1   
     2     1    13 1   
     3     2    10 1   
     4     2    14 1   
     5     3     4 1   
     6     3    10 1   
     7     3    11 1   
     8     3    15 1   
     9     4     5 1   
    10     4     6 1   
    11     4    16 1   
    12     5    17 1   
    13     6     7 1   
    14     6    12 1   
    15     6    18 1   
    16     7     8 1   
    17     7    19 1   
    18     8     9 1   
    19     8    10 1   
    20     8    20 1   
    21     9    22 1   
    22     9    23 1   
    23     9    27 1   
    24    10    24 1   
    25    11    25 1   
    26    12    26 1   
    27    21    27 1   
@<TRIPOS>SUBSTRUCTURE
     1 YGX         1 TEMP              0 ****  ****    0 ROOT
