@<TRIPOS>MOLECULE
YGX
   27    27     1     0     0
SMALL
No Charge or Current Charge


@<TRIPOS>ATOM
      1 O4          64.8840    28.0340    34.7040 oh         1 YGX      -0.704000
      2 O7          62.4820    27.4310    35.7760 oh         1 YGX      -0.704000
      3 C1          61.4160    28.8060    34.0450 c6         1 YGX       0.157300
      4 C2          62.4500    28.4720    32.9170 c6         1 YGX       0.187300
      5 O2          61.8180    28.5910    31.6230 oh         1 YGX      -0.717000
      6 C3          63.7120    29.3920    32.9920 c6         1 YGX       0.157300
      7 C4          64.3540    29.3460    34.4230 c6         1 YGX       0.155800
      8 C5          63.3080    29.7240    35.5160 c6         1 YGX      -0.121700
      9 C6          63.9480    29.8230    36.9320 c3         1 YGX       0.158600
     10 C7          62.0760    28.7710    35.4610 c6         1 YGX       0.155800
     11 O1          60.3180    27.8730    34.0000 oh         1 YGX      -0.715500
     12 O3          63.3550    30.7380    32.6150 oh         1 YGX      -0.715500
     13 H1          65.7960    28.0040    34.3270 ho         1 YGX       0.499000
     14 HO7         63.4400    27.4130    35.4990 ho         1 YGX       0.499000
     15 H1'1        61.0410    29.8280    33.8760 h1         1 YGX       0.063700
     16 H2          62.7890    27.4350    33.0660 h1         1 YGX       0.081700
     17 HO2         60.9240    28.1840    31.7410 ho         1 YGX       0.520000
     18 H3          64.4530    29.0020    32.2780 h1         1 YGX       0.063700
     19 H4          65.1700    30.0840    34.4560 h1         1 YGX       0.035200
     20 H5          62.9550    30.7420    35.2970 hc         1 YGX       0.078700
     21 HO6         63.5180    30.4250    38.7460 ho         1 YGX       0.446000
     22 H6'2        64.2570    28.8230    37.2650 h1         1 YGX       0.024200
     23 H6'1        64.8550    30.4380    36.8580 h1         1 YGX       0.024200
     24 H7          61.3300    29.1150    36.1930 h1         1 YGX       0.035200
     25 H8          60.5560    27.1840    34.6670 ho         1 YGX       0.502500
     26 H9          62.7450    30.6230    31.8470 ho         1 YGX       0.502500
     27 O6          63.0490    30.4080    37.8820 oh         1 YGX      -0.670000
@<TRIPOS>BOND
     1     1     7 1   
     2     1    13 1   
     3     2    10 1   
     4     2    14 1   
     5     3     4 1   
     6     3    10 1   
     7     3    11 1   
     8     3    15 1   
     9     4     5 1   
    10     4     6 1   
    11     4    16 1   
    12     5    17 1   
    13     6     7 1   
    14     6    12 1   
    15     6    18 1   
    16     7     8 1   
    17     7    19 1   
    18     8     9 1   
    19     8    10 1   
    20     8    20 1   
    21     9    22 1   
    22     9    23 1   
    23     9    27 1   
    24    10    24 1   
    25    11    25 1   
    26    12    26 1   
    27    21    27 1   
@<TRIPOS>SUBSTRUCTURE
     1 YGX         1 TEMP              0 ****  ****    0 ROOT
