@<TRIPOS>MOLECULE
YH0
   52    56     1     0     0
SMALL
No Charge or Current Charge


@<TRIPOS>ATOM
      1 N1          13.7320     5.8780   124.5530 na         1 YH0      -0.308600
      2 C7          13.9590     4.4230   127.9890 ca         1 YH0      -0.033000
      3 C8          12.2060     7.0890   122.8980 ca         1 YH0      -0.090900
      4 N2          11.6180     6.4770   125.2270 nc         1 YH0      -0.565100
      5 C9          10.9340     7.6440   122.6310 ca         1 YH0      -0.092500
      6 O1          12.1720     8.8580   118.0980 o          1 YH0      -0.603100
      7 C1          14.4570     4.7880   126.7140 ca         1 YH0      -0.169600
      8 C5          11.8090     5.4870   127.5050 ca         1 YH0      -0.024000
      9 C6          12.6490     4.7760   128.3830 ca         1 YH0      -0.147000
     10 N3          10.0710     9.3670   118.7830 ns         1 YH0      -0.504900
     11 C4          12.2980     5.8200   126.2340 ca         1 YH0       0.059400
     12 C3          12.5160     6.4960   124.2220 cd         1 YH0       0.462400
     13 C2          13.5680     5.4790   125.8560 ca         1 YH0      -0.050200
     14 N4           9.6270     9.8580   114.1380 na         1 YH0      -0.313600
     15 N           16.5190     5.1850   125.4390 nt         1 YH0      -0.605000
     16 C           15.8760     4.4220   126.3500 c          1 YH0       0.615700
     17 O           16.4520     3.4640   126.8390 o          1 YH0      -0.582100
     18 C10         10.6370     8.2090   121.3780 ca         1 YH0      -0.076000
     19 C11         11.6080     8.2380   120.3500 ca         1 YH0      -0.139600
     20 C12         12.8790     7.6860   120.6190 ca         1 YH0      -0.076000
     21 C13         13.1750     7.1210   121.8720 ca         1 YH0      -0.092500
     22 C14         11.3290     8.8380   118.9850 c          1 YH0       0.612700
     23 C15          9.6080     9.9690   117.5290 c3         1 YH0       0.105000
     24 C16          9.2390     8.9080   116.4760 c3         1 YH0      -0.118700
     25 C17          8.7770     9.5200   115.1870 cc         1 YH0       0.413800
     26 C18          8.8510    10.3920   113.1570 ca         1 YH0      -0.078200
     27 C19          7.5660    10.3710   113.6170 ca         1 YH0       0.066400
     28 C20          6.5160    10.8610   112.8260 ca         1 YH0      -0.049000
     29 C21          6.8250    11.3740   111.5460 ca         1 YH0      -0.136000
     30 C22          8.1640    11.3890   111.0830 ca         1 YH0      -0.093000
     31 C23          9.2030    10.8910   111.8970 ca         1 YH0      -0.115000
     32 N5           7.4970     9.8250   114.8970 nd         1 YH0      -0.577100
     33 H1          14.4850     5.6650   123.9140 hn         1 YH0       0.366000
     34 H2          14.5930     3.8800   128.6880 ha         1 YH0       0.133000
     35 H4          10.1610     7.6400   123.3960 ha         1 YH0       0.128000
     36 H5          10.7980     5.7600   127.7970 ha         1 YH0       0.133000
     37 H6          12.2870     4.4970   129.3700 ha         1 YH0       0.122000
     38 H7           9.4270     9.3240   119.5610 hn         1 YH0       0.323500
     39 H9          17.4720     4.9590   125.1970 hn         1 YH0       0.306000
     40 H10         16.1010     6.0470   125.1260 hn         1 YH0       0.306000
     41 H11          9.6420     8.6190   121.2280 ha         1 YH0       0.128000
     42 H12         13.6520     7.6920   119.8520 ha         1 YH0       0.128000
     43 H13         14.1690     6.7120   122.0320 ha         1 YH0       0.128000
     44 H14         10.3950    10.6250   117.1330 h1         1 YH0       0.059700
     45 H15          8.7290    10.5920   117.7420 h1         1 YH0       0.059700
     46 H16          8.4510     8.2600   116.8770 hc         1 YH0       0.075200
     47 H17         10.1050     8.2640   116.2830 hc         1 YH0       0.075200
     48 H18          5.4920    10.8450   113.1910 ha         1 YH0       0.127000
     49 H19          6.0290    11.7600   110.9130 ha         1 YH0       0.114000
     50 H20          8.3920    11.7860   110.0960 ha         1 YH0       0.112000
     51 H21         10.2360    10.8950   111.5570 ha         1 YH0       0.117000
     52 H8          10.6300     9.7260   114.1210 hn         1 YH0       0.361000
@<TRIPOS>BOND
     1     1    12 1   
     2     1    13 1   
     3     1    33 1   
     4     2     7 ar  
     5     2     9 ar  
     6     2    34 1   
     7     3     5 ar  
     8     3    12 1   
     9     3    21 ar  
    10     4    11 1   
    11     4    12 2   
    12     5    18 ar  
    13     5    35 1   
    14     6    22 2   
    15     7    13 ar  
    16     7    16 1   
    17     8     9 ar  
    18     8    11 ar  
    19     8    36 1   
    20     9    37 1   
    21    10    22 1   
    22    10    23 1   
    23    10    38 1   
    24    11    13 ar  
    25    14    25 1   
    26    14    26 1   
    27    14    52 1   
    28    15    16 1   
    29    15    39 1   
    30    15    40 1   
    31    16    17 2   
    32    18    19 ar  
    33    18    41 1   
    34    19    20 ar  
    35    19    22 1   
    36    20    21 ar  
    37    20    42 1   
    38    21    43 1   
    39    23    24 1   
    40    23    44 1   
    41    23    45 1   
    42    24    25 1   
    43    24    46 1   
    44    24    47 1   
    45    25    32 2   
    46    26    27 ar  
    47    26    31 ar  
    48    27    28 ar  
    49    27    32 1   
    50    28    29 ar  
    51    28    48 1   
    52    29    30 ar  
    53    29    49 1   
    54    30    31 ar  
    55    30    50 1   
    56    31    51 1   
@<TRIPOS>SUBSTRUCTURE
     1 YH0         1 TEMP              0 ****  ****    0 ROOT
