@<TRIPOS>MOLECULE
YH0
   52    56     1     0     0
SMALL
abcg2


@<TRIPOS>ATOM
      1 N1          13.6790     5.9310   124.4770 na         1 YH0      -0.308600
      2 C7          13.9920     4.6690   127.9440 ca         1 YH0      -0.033000
      3 C8          12.1630     6.8810   122.7470 ca         1 YH0      -0.090900
      4 N2          11.5670     6.2980   125.0480 nc         1 YH0      -0.565100
      5 C9          10.8390     7.1480   122.3960 ca         1 YH0      -0.092500
      6 O1          11.9910     8.1670   117.9030 o          1 YH0      -0.603100
      7 C1          14.4930     4.9920   126.6900 ca         1 YH0      -0.169600
      8 C5          11.7700     5.4700   127.3980 ca         1 YH0      -0.024000
      9 C6          12.6620     4.9150   128.2970 ca         1 YH0      -0.147000
     10 N3          10.2020     9.2600   118.7340 ns         1 YH0      -0.504900
     11 C4          12.2370     5.7790   126.1230 ca         1 YH0       0.059400
     12 C3          12.4490     6.3720   124.0870 cd         1 YH0       0.462400
     13 C2          13.5820     5.5430   125.7840 ca         1 YH0      -0.050200
     14 N4           9.4800     9.6990   114.3130 na         1 YH0      -0.313600
     15 N           16.5150     5.5670   125.5190 nt         1 YH0      -0.605000
     16 C           15.9220     4.7060   126.3750 c          1 YH0       0.615700
     17 O           16.4940     3.7410   126.8520 o          1 YH0      -0.582100
     18 C10         10.5310     7.6560   121.1480 ca         1 YH0      -0.076000
     19 C11         11.5380     7.9040   120.2160 ca         1 YH0      -0.139600
     20 C12         12.8550     7.6120   120.5560 ca         1 YH0      -0.076000
     21 C13         13.1680     7.1200   121.8100 ca         1 YH0      -0.092500
     22 C14         11.2650     8.4440   118.8470 c          1 YH0       0.612700
     23 C15          9.8140     9.8610   117.4810 c3         1 YH0       0.105000
     24 C16          8.9570     8.9250   116.6200 c3         1 YH0      -0.118700
     25 C17          8.5860     9.5660   115.3300 cc         1 YH0       0.413800
     26 C18          8.8510    10.3580   113.2920 ca         1 YH0      -0.078200
     27 C19          7.5530    10.5990   113.7760 ca         1 YH0       0.066400
     28 C20          6.6280    11.2660   112.9730 ca         1 YH0      -0.049000
     29 C21          7.0330    11.6690   111.7130 ca         1 YH0      -0.136000
     30 C22          8.3330    11.4180   111.2470 ca         1 YH0      -0.093000
     31 C23          9.2660    10.7580   112.0280 ca         1 YH0      -0.115000
     32 N5           7.4250    10.0930   115.0490 nd         1 YH0      -0.577100
     33 H1          14.4940     5.8260   123.8920 hn         1 YH0       0.366000
     34 H2          14.6580     4.2300   128.6750 ha         1 YH0       0.133000
     35 H4          10.0480     6.9510   123.1060 ha         1 YH0       0.128000
     36 H5          10.7380     5.6550   127.6690 ha         1 YH0       0.133000
     37 H6          12.3290     4.6600   129.2940 ha         1 YH0       0.122000
     38 H7           9.6800     9.5180   119.5550 hn         1 YH0       0.323500
     39 H9          17.5010     5.4500   125.3380 hn         1 YH0       0.306000
     40 H10         16.1670     6.5060   125.4050 hn         1 YH0       0.306000
     41 H11          9.4910     7.8310   120.9060 ha         1 YH0       0.128000
     42 H12         13.6490     7.7870   119.8420 ha         1 YH0       0.128000
     43 H13         14.2090     6.9370   122.0430 ha         1 YH0       0.128000
     44 H14         10.7080    10.1630   116.9330 h1         1 YH0       0.059700
     45 H15          9.2530    10.7660   117.7090 h1         1 YH0       0.059700
     46 H16          8.0440     8.6640   117.1540 hc         1 YH0       0.075200
     47 H17          9.5060     8.0000   116.4280 hc         1 YH0       0.075200
     48 H18          5.6240    11.4610   113.3290 ha         1 YH0       0.127000
     49 H19          6.3350    12.1880   111.0690 ha         1 YH0       0.114000
     50 H20          8.6110    11.7490   110.2550 ha         1 YH0       0.112000
     51 H21         10.2680    10.5640   111.6670 ha         1 YH0       0.117000
     52 H8          10.4290     9.3580   114.3130 hn         1 YH0       0.361000
@<TRIPOS>BOND
     1     1    12 1   
     2     1    13 1   
     3     1    33 1   
     4     2     7 ar  
     5     2     9 ar  
     6     2    34 1   
     7     3     5 ar  
     8     3    12 1   
     9     3    21 ar  
    10     4    11 1   
    11     4    12 2   
    12     5    18 ar  
    13     5    35 1   
    14     6    22 2   
    15     7    13 ar  
    16     7    16 1   
    17     8     9 ar  
    18     8    11 ar  
    19     8    36 1   
    20     9    37 1   
    21    10    22 1   
    22    10    23 1   
    23    10    38 1   
    24    11    13 ar  
    25    14    25 1   
    26    14    26 1   
    27    14    52 1   
    28    15    16 1   
    29    15    39 1   
    30    15    40 1   
    31    16    17 2   
    32    18    19 ar  
    33    18    41 1   
    34    19    20 ar  
    35    19    22 1   
    36    20    21 ar  
    37    20    42 1   
    38    21    43 1   
    39    23    24 1   
    40    23    44 1   
    41    23    45 1   
    42    24    25 1   
    43    24    46 1   
    44    24    47 1   
    45    25    32 2   
    46    26    27 ar  
    47    26    31 ar  
    48    27    28 ar  
    49    27    32 1   
    50    28    29 ar  
    51    28    48 1   
    52    29    30 ar  
    53    29    49 1   
    54    30    31 ar  
    55    30    50 1   
    56    31    51 1   
@<TRIPOS>SUBSTRUCTURE
     1 YH0         1 TEMP              0 ****  ****    0 ROOT
