@<TRIPOS>MOLECULE
YH1
   32    34     1     0     0
SMALL
No Charge or Current Charge


@<TRIPOS>ATOM
      1 N01          4.7910     1.4750     0.0570 ns         1 YH1      -0.457400
      2 C02          5.3390     0.2390     0.0460 cc         1 YH1       0.732800
      3 N03          4.7110    -0.9160     0.0350 nd         1 YH1      -0.704100
      4 C04          3.3290    -0.7660     0.0300 cd         1 YH1       0.151400
      5 C05          2.6750     0.4440     0.0390 cc         1 YH1       0.094500
      6 C06          3.4500     1.7080     0.0560 c          1 YH1       0.521500
      7 O07          2.9870     2.8400     0.0700 o          1 YH1      -0.518000
      8 N08          6.6570     0.1910     0.0460 nv         1 YH1      -1.039200
      9 N09          2.3660    -1.7390     0.0180 na         1 YH1      -0.293500
     10 C10          1.1730    -1.0540     0.0190 cd         1 YH1       0.497800
     11 N11          1.3070     0.2630     0.0320 nc         1 YH1      -0.616000
     12 S12         -0.3610    -1.9240     0.0060 ss         1 YH1      -0.280300
     13 C13         -1.6260    -0.5540     0.0140 c3         1 YH1      -0.066400
     14 C14         -3.0900    -1.0350     0.0040 c          1 YH1       0.595700
     15 C15         -4.1990     0.0020     0.0100 ca         1 YH1      -0.176600
     16 O16         -3.3610    -2.2320    -0.0080 o          1 YH1      -0.513100
     17 C17         -5.5510    -0.4140     0.0010 ca         1 YH1      -0.060000
     18 C18         -6.5930     0.5290     0.0050 ca         1 YH1      -0.124500
     19 C19         -6.3030     1.9010     0.0190 ca         1 YH1      -0.079000
     20 C20         -4.9660     2.3300     0.0280 ca         1 YH1      -0.124500
     21 C21         -3.9190     1.3920     0.0240 ca         1 YH1      -0.060000
     22 H1           5.3920     2.2810     0.0930 hn         1 YH1       0.323500
     23 H2           7.1370     0.9510    -0.4200 hn         1 YH1       0.499500
     24 H3           7.0280    -0.7320    -0.1450 hn         1 YH1       0.499500
     25 H4           2.4930    -2.7390     0.0090 hn         1 YH1       0.375000
     26 H6          -1.4830     0.0610     0.9100 h1         1 YH1       0.105700
     27 H7          -1.4770     0.0780    -0.8690 h1         1 YH1       0.105700
     28 H8          -5.8030    -1.4740    -0.0100 ha         1 YH1       0.128000
     29 H9          -7.6280     0.1940    -0.0020 ha         1 YH1       0.119500
     30 H10         -7.1100     2.6300     0.0230 ha         1 YH1       0.115000
     31 H11         -4.7400     3.3940     0.0390 ha         1 YH1       0.119500
     32 H12         -2.8970     1.7640     0.0310 ha         1 YH1       0.128000
@<TRIPOS>BOND
     1     1     2 1   
     2     1     6 1   
     3     1    22 1   
     4     2     3 2   
     5     2     8 1   
     6     3     4 1   
     7     4     5 2   
     8     4     9 1   
     9     5     6 1   
    10     5    11 1   
    11     6     7 2   
    12     8    23 1   
    13     8    24 1   
    14     9    10 1   
    15     9    25 1   
    16    10    11 2   
    17    10    12 1   
    18    12    13 1   
    19    13    14 1   
    20    13    26 1   
    21    13    27 1   
    22    14    15 1   
    23    14    16 2   
    24    15    17 ar  
    25    15    21 ar  
    26    17    18 ar  
    27    17    28 1   
    28    18    19 ar  
    29    18    29 1   
    30    19    20 ar  
    31    19    30 1   
    32    20    21 ar  
    33    20    31 1   
    34    21    32 1   
@<TRIPOS>SUBSTRUCTURE
     1 YH1         1 TEMP              0 ****  ****    0 ROOT
