@<TRIPOS>MOLECULE
YH1
   32    34     1     0     0
SMALL
bcc


@<TRIPOS>ATOM
      1 N01          4.7050     1.4020     0.0230 ns         1 YH1      -0.524400
      2 C02          5.2570     0.1550    -0.0180 cc         1 YH1       0.732800
      3 N03          4.5420    -0.9430    -0.0280 nd         1 YH1      -0.704100
      4 C04          3.2230    -0.7100     0.0090 cd         1 YH1       0.136800
      5 C05          2.5650     0.5040     0.0490 cc         1 YH1       0.159800
      6 C06          3.3360     1.7000     0.0590 c          1 YH1       0.664000
      7 O07          2.9540     2.8590     0.0910 o          1 YH1      -0.593500
      8 N08          6.5970     0.0820    -0.0110 nv         1 YH1      -0.928800
      9 N09          2.2360    -1.6440     0.0070 na         1 YH1      -0.293900
     10 C10          1.0460    -0.9650     0.0440 cd         1 YH1       0.497800
     11 N11          1.2020     0.3230     0.0710 nc         1 YH1      -0.616000
     12 S12         -0.4570    -1.8510     0.0480 ss         1 YH1      -0.232400
     13 C13         -1.5830    -0.4380     0.0540 c3         1 YH1      -0.114300
     14 C14         -2.9950    -0.9670     0.0390 c          1 YH1       0.595700
     15 C15         -4.1020     0.0190     0.0240 ca         1 YH1      -0.176600
     16 O16         -3.1990    -2.1620     0.0380 o          1 YH1      -0.513100
     17 C17         -5.4180    -0.4460    -0.0190 ca         1 YH1      -0.078000
     18 C18         -6.4740     0.4490    -0.0360 ca         1 YH1      -0.142500
     19 C19         -6.2270     1.8170    -0.0080 ca         1 YH1      -0.097000
     20 C20         -4.9220     2.2880     0.0360 ca         1 YH1      -0.142500
     21 C21         -3.8630     1.3930     0.0510 ca         1 YH1      -0.078000
     22 H1           5.3260     2.2000     0.0340 hn         1 YH1       0.323500
     23 H2           7.1540     0.8880    -0.2410 hn         1 YH1       0.444300
     24 H3           7.0110    -0.8120    -0.2140 hn         1 YH1       0.444300
     25 H4           2.3660    -2.6440    -0.0230 hn         1 YH1       0.324700
     26 H6          -1.4140     0.1770     0.9400 h1         1 YH1       0.105700
     27 H7          -1.4010     0.1940    -0.8180 h1         1 YH1       0.105700
     28 H8          -5.6130    -1.5100    -0.0420 ha         1 YH1       0.146000
     29 H9          -7.4910     0.0820    -0.0710 ha         1 YH1       0.137500
     30 H10         -7.0520     2.5160    -0.0210 ha         1 YH1       0.133000
     31 H11         -4.7280     3.3520     0.0570 ha         1 YH1       0.137500
     32 H12         -2.8530     1.7810     0.0850 ha         1 YH1       0.146000
@<TRIPOS>BOND
     1     1     2 1   
     2     1     6 1   
     3     1    22 1   
     4     2     3 2   
     5     2     8 1   
     6     3     4 1   
     7     4     5 2   
     8     4     9 1   
     9     5     6 1   
    10     5    11 1   
    11     6     7 2   
    12     8    23 1   
    13     8    24 1   
    14     9    10 1   
    15     9    25 1   
    16    10    11 2   
    17    10    12 1   
    18    12    13 1   
    19    13    14 1   
    20    13    26 1   
    21    13    27 1   
    22    14    15 1   
    23    14    16 2   
    24    15    17 ar  
    25    15    21 ar  
    26    17    18 ar  
    27    17    28 1   
    28    18    19 ar  
    29    18    29 1   
    30    19    20 ar  
    31    19    30 1   
    32    20    21 ar  
    33    20    31 1   
    34    21    32 1   
@<TRIPOS>SUBSTRUCTURE
     1 YH1         1 TEMP              0 ****  ****    0 ROOT
