@<TRIPOS>MOLECULE
YH2
   31    33     1     0     0
SMALL
No Charge or Current Charge


@<TRIPOS>ATOM
      1 C01          4.0480    -1.5250    -0.0230 c          1 YH2       0.521500
      2 N02          5.2870    -0.9620    -0.0370 ns         1 YH2      -0.457400
      3 C03          5.5060     0.3720    -0.0590 cc         1 YH2       0.736800
      4 N04          4.6070     1.3310    -0.0710 nd         1 YH2      -0.707100
      5 C05          3.3070     0.8380    -0.0540 cd         1 YH2       0.153400
      6 C06          2.9800    -0.4970    -0.0300 cc         1 YH2       0.093500
      7 O07          3.8860    -2.7380    -0.0080 o          1 YH2      -0.515000
      8 N08          6.7690     0.7510    -0.0680 nv         1 YH2      -1.042200
      9 N09          2.1300     1.5360    -0.0580 na         1 YH2      -0.293500
     10 C10          1.1500     0.5730    -0.0360 cd         1 YH2       0.508800
     11 N11          1.6110    -0.6680    -0.0190 nc         1 YH2      -0.610000
     12 S12         -0.5500     1.0290    -0.0330 ss         1 YH2      -0.354300
     13 C13         -1.4120    -0.6060    -0.0020 c3         1 YH2       0.113900
     14 C14         -2.9220    -0.4140     0.0040 ca         1 YH2      -0.067300
     15 C15         -3.6330    -0.3390    -1.2100 ca         1 YH2      -0.096000
     16 C16         -5.0280    -0.1590    -1.2050 ca         1 YH2      -0.074000
     17 C17         -5.7240    -0.0510     0.0140 ca         1 YH2      -0.010000
     18 C18         -5.0140    -0.1230     1.2280 ca         1 YH2      -0.074000
     19 C19         -3.6190    -0.3030     1.2220 ca         1 YH2      -0.096000
     20 C20         -7.1500     0.1340     0.0200 cg         1 YH2       0.321000
     21 N21         -8.3090     0.2750     0.0260 n1         1 YH2      -0.448000
     22 H1           6.0730    -1.5910    -0.0590 hn         1 YH2       0.323500
     23 H2           7.4240     0.1510     0.4160 hn         1 YH2       0.501500
     24 H3           6.8930     1.7420     0.0980 hn         1 YH2       0.501500
     25 H4           2.0000     2.5350    -0.0740 hn         1 YH2       0.375000
     26 H6          -1.1120    -1.1900    -0.8820 h1         1 YH2       0.092700
     27 H7          -1.1020    -1.1620     0.8920 h1         1 YH2       0.092700
     28 H8          -3.1050    -0.4180    -2.1580 ha         1 YH2       0.126500
     29 H9          -5.5650    -0.1030    -2.1500 ha         1 YH2       0.129000
     30 H10         -5.5400    -0.0390     2.1770 ha         1 YH2       0.129000
     31 H11         -3.0810    -0.3550     2.1660 ha         1 YH2       0.126500
@<TRIPOS>BOND
     1     1     2 1   
     2     1     6 1   
     3     1     7 2   
     4     2     3 1   
     5     2    22 1   
     6     3     4 2   
     7     3     8 1   
     8     4     5 1   
     9     5     6 2   
    10     5     9 1   
    11     6    11 1   
    12     8    23 1   
    13     8    24 1   
    14     9    10 1   
    15     9    25 1   
    16    10    11 2   
    17    10    12 1   
    18    12    13 1   
    19    13    14 1   
    20    13    26 1   
    21    13    27 1   
    22    14    15 ar  
    23    14    19 ar  
    24    15    16 ar  
    25    15    28 1   
    26    16    17 ar  
    27    16    29 1   
    28    17    18 ar  
    29    17    20 1   
    30    18    19 ar  
    31    18    30 1   
    32    19    31 1   
    33    20    21 3   
@<TRIPOS>SUBSTRUCTURE
     1 YH2         1 TEMP              0 ****  ****    0 ROOT
