@<TRIPOS>MOLECULE
YH2
   31    33     1     0     0
SMALL
abcg2


@<TRIPOS>ATOM
      1 C01          3.9370    -1.5280     0.0180 c          1 YH2       0.521500
      2 N02          5.1910    -0.9040     0.0040 ns         1 YH2      -0.457400
      3 C03          5.4220     0.4410    -0.0270 cc         1 YH2       0.736800
      4 N04          4.4590     1.3300    -0.0440 nd         1 YH2      -0.707100
      5 C05          3.2380     0.7810    -0.0340 cd         1 YH2       0.153400
      6 C06          2.8970    -0.5580    -0.0040 cc         1 YH2       0.093500
      7 O07          3.8500    -2.7450     0.0460 o          1 YH2      -0.515000
      8 N08          6.7020     0.8390    -0.0770 nv         1 YH2      -1.042200
      9 N09          2.0520     1.4440    -0.0460 na         1 YH2      -0.293500
     10 C10          1.0650     0.4940    -0.0240 cd         1 YH2       0.508800
     11 N11          1.5310    -0.7160     0.0010 nc         1 YH2      -0.610000
     12 S12         -0.6130     0.9690    -0.0290 ss         1 YH2      -0.354300
     13 C13         -1.3930    -0.6790     0.0060 c3         1 YH2       0.113900
     14 C14         -2.8740    -0.4580     0.0050 ca         1 YH2      -0.067300
     15 C15         -3.5640    -0.3360    -1.1980 ca         1 YH2      -0.096000
     16 C16         -4.9290    -0.1100    -1.2080 ca         1 YH2      -0.074000
     17 C17         -5.6130    -0.0030     0.0030 ca         1 YH2      -0.010000
     18 C18         -4.9330    -0.1190     1.2140 ca         1 YH2      -0.074000
     19 C19         -3.5670    -0.3440     1.2070 ca         1 YH2      -0.096000
     20 C20         -7.0220     0.2270     0.0020 cg         1 YH2       0.321000
     21 N21         -8.1590     0.4120     0.0010 n1         1 YH2      -0.448000
     22 H1           5.9880    -1.5270     0.0100 hn         1 YH2       0.323500
     23 H2           7.4480     0.2090     0.1620 hn         1 YH2       0.501500
     24 H3           6.8870     1.8190     0.0540 hn         1 YH2       0.501500
     25 H4           1.9330     2.4470    -0.0630 hn         1 YH2       0.375000
     26 H6          -1.0680    -1.2390    -0.8700 h1         1 YH2       0.092700
     27 H7          -1.0640    -1.2030     0.9010 h1         1 YH2       0.092700
     28 H8          -3.0320    -0.4230    -2.1370 ha         1 YH2       0.126500
     29 H9          -5.4620    -0.0190    -2.1440 ha         1 YH2       0.129000
     30 H10         -5.4670    -0.0360     2.1500 ha         1 YH2       0.129000
     31 H11         -3.0370    -0.4380     2.1460 ha         1 YH2       0.126500
@<TRIPOS>BOND
     1     1     2 1   
     2     1     6 1   
     3     1     7 2   
     4     2     3 1   
     5     2    22 1   
     6     3     4 2   
     7     3     8 1   
     8     4     5 1   
     9     5     6 2   
    10     5     9 1   
    11     6    11 1   
    12     8    23 1   
    13     8    24 1   
    14     9    10 1   
    15     9    25 1   
    16    10    11 2   
    17    10    12 1   
    18    12    13 1   
    19    13    14 1   
    20    13    26 1   
    21    13    27 1   
    22    14    15 ar  
    23    14    19 ar  
    24    15    16 ar  
    25    15    28 1   
    26    16    17 ar  
    27    16    29 1   
    28    17    18 ar  
    29    17    20 1   
    30    18    19 ar  
    31    18    30 1   
    32    19    31 1   
    33    20    21 3   
@<TRIPOS>SUBSTRUCTURE
     1 YH2         1 TEMP              0 ****  ****    0 ROOT
