@<TRIPOS>MOLECULE
YH3
   35    37     1     0     0
SMALL
No Charge or Current Charge


@<TRIPOS>ATOM
      1 O16         -2.9640     2.2400    -0.0460 o          1 YH3      -0.513100
      2 C14         -2.6960     1.0430    -0.0360 c          1 YH3       0.596700
      3 C15         -3.8060     0.0080    -0.0190 ca         1 YH3      -0.173600
      4 C17         -5.1580     0.4280    -0.0160 ca         1 YH3      -0.054000
      5 C18         -6.2090    -0.5090    -0.0000 ca         1 YH3      -0.088300
      6 C22         -7.6550    -0.0350    -0.0010 c3         1 YH3      -0.046800
      7 C19         -5.9140    -1.8830     0.0090 ca         1 YH3      -0.081000
      8 C20         -4.5790    -2.3160     0.0060 ca         1 YH3      -0.120000
      9 C21         -3.5300    -1.3810    -0.0070 ca         1 YH3      -0.072000
     10 C13         -1.2330     0.5590    -0.0400 c3         1 YH3      -0.066400
     11 S12          0.0350     1.9270    -0.0620 ss         1 YH3      -0.280300
     12 C10          1.5490     1.0370    -0.0620 cc         1 YH3       0.497800
     13 N09          2.7490     1.6870    -0.0760 na         1 YH3      -0.294500
     14 C04          3.6960     0.7060    -0.0720 cc         1 YH3       0.151400
     15 C05          3.0240    -0.5000    -0.0550 cd         1 YH3       0.095500
     16 N11          1.6470    -0.2800    -0.0490 nd         1 YH3      -0.616000
     17 N03          5.0620     0.8610    -0.0830 nc         1 YH3      -0.705100
     18 C02          5.7010    -0.2850    -0.0750 cd         1 YH3       0.731800
     19 N08          7.0180    -0.1970    -0.0780 nv         1 YH3      -1.038200
     20 N01          5.1650    -1.5230    -0.0580 ns         1 YH3      -0.456400
     21 C06          3.8200    -1.7620    -0.0490 c          1 YH3       0.521500
     22 O07          3.3620    -2.8970    -0.0390 o          1 YH3      -0.518000
     23 H1          -5.3990     1.4890    -0.0270 ha         1 YH3       0.132000
     24 H2          -8.0030     0.1540    -1.0230 hc         1 YH3       0.045033
     25 H3          -8.3220    -0.7810     0.4480 hc         1 YH3       0.045033
     26 H4          -7.7700     0.8940     0.5700 hc         1 YH3       0.045033
     27 H5          -6.7170    -2.6170     0.0180 ha         1 YH3       0.114000
     28 H6          -4.3560    -3.3800     0.0140 ha         1 YH3       0.120000
     29 H7          -2.5090    -1.7560    -0.0090 ha         1 YH3       0.123000
     30 H8          -1.0840    -0.0570     0.8550 h1         1 YH3       0.105700
     31 H9          -1.0950    -0.0750    -0.9240 h1         1 YH3       0.105700
     32 H10          2.8950     2.6840    -0.0880 hn         1 YH3       0.375000
     33 H12          7.3570     0.7400     0.1040 hn         1 YH3       0.498500
     34 H13          7.5340    -0.9380     0.3810 hn         1 YH3       0.498500
     35 H14          5.7650    -2.3310    -0.0760 hn         1 YH3       0.323500
@<TRIPOS>BOND
     1     1     2 2   
     2     2     3 1   
     3     2    10 1   
     4     3     4 ar  
     5     3     9 ar  
     6     4     5 ar  
     7     4    23 1   
     8     5     6 1   
     9     5     7 ar  
    10     6    24 1   
    11     6    25 1   
    12     6    26 1   
    13     7     8 ar  
    14     7    27 1   
    15     8     9 ar  
    16     8    28 1   
    17     9    29 1   
    18    10    11 1   
    19    10    30 1   
    20    10    31 1   
    21    11    12 1   
    22    12    13 1   
    23    12    16 2   
    24    13    14 1   
    25    13    32 1   
    26    14    15 2   
    27    14    17 1   
    28    15    16 1   
    29    15    21 1   
    30    17    18 2   
    31    18    19 1   
    32    18    20 1   
    33    19    33 1   
    34    19    34 1   
    35    20    21 1   
    36    20    35 1   
    37    21    22 2   
@<TRIPOS>SUBSTRUCTURE
     1 YH3         1 TEMP              0 ****  ****    0 ROOT
