@<TRIPOS>MOLECULE
YH3
   35    37     1     0     0
SMALL
bcc


@<TRIPOS>ATOM
      1 O16         -2.8220     2.1240    -0.0640 o          1 YH3      -0.513100
      2 C14         -2.6260     0.9280    -0.0600 c          1 YH3       0.596700
      3 C15         -3.7380    -0.0520    -0.0380 ca         1 YH3      -0.173600
      4 C17         -5.0500     0.4220     0.0010 ca         1 YH3      -0.072000
      5 C18         -6.1320    -0.4480     0.0240 ca         1 YH3      -0.088300
      6 C22         -7.5400     0.0720     0.0350 c3         1 YH3      -0.046800
      7 C19         -5.8750    -1.8190     0.0110 ca         1 YH3      -0.099000
      8 C20         -4.5760    -2.3050    -0.0270 ca         1 YH3      -0.138000
      9 C21         -3.5040    -1.4270    -0.0510 ca         1 YH3      -0.090000
     10 C13         -1.2160     0.3930    -0.0770 c3         1 YH3      -0.114300
     11 S12         -0.0890     1.8050    -0.0940 ss         1 YH3      -0.232400
     12 C10          1.4160     0.9240    -0.0770 cc         1 YH3       0.497800
     13 N09          2.6020     1.6110    -0.0620 na         1 YH3      -0.294900
     14 C04          3.5950     0.6830    -0.0480 cc         1 YH3       0.136800
     15 C05          2.9450    -0.5360    -0.0550 cd         1 YH3       0.160800
     16 N11          1.5810    -0.3630    -0.0740 nd         1 YH3      -0.616000
     17 N03          4.9110     0.9270    -0.0240 nc         1 YH3      -0.705100
     18 C02          5.6350    -0.1660    -0.0120 cd         1 YH3       0.731800
     19 N08          6.9750    -0.0810    -0.0290 nv         1 YH3      -0.927800
     20 N01          5.0920    -1.4170    -0.0220 ns         1 YH3      -0.523400
     21 C06          3.7240    -1.7260    -0.0430 c          1 YH3       0.664000
     22 O07          3.3510    -2.8880    -0.0480 o          1 YH3      -0.593500
     23 H1          -5.2260     1.4910     0.0170 ha         1 YH3       0.150000
     24 H2          -7.9270     0.1630    -0.9810 hc         1 YH3       0.045033
     25 H3          -8.2080    -0.5950     0.5790 hc         1 YH3       0.045033
     26 H4          -7.5970     1.0580     0.4940 hc         1 YH3       0.045033
     27 H5          -6.7020    -2.5170     0.0330 ha         1 YH3       0.132000
     28 H6          -4.3990    -3.3720    -0.0340 ha         1 YH3       0.138000
     29 H7          -2.4980    -1.8240    -0.0790 ha         1 YH3       0.141000
     30 H8          -1.0320    -0.2280     0.8020 h1         1 YH3       0.105700
     31 H9          -1.0530    -0.2340    -0.9560 h1         1 YH3       0.105700
     32 H10          2.7270     2.6120    -0.0620 hn         1 YH3       0.324700
     33 H12          7.3790     0.8220     0.1530 hn         1 YH3       0.443300
     34 H13          7.5390    -0.8740     0.2270 hn         1 YH3       0.443300
     35 H14          5.7190    -2.2110    -0.0220 hn         1 YH3       0.323500
@<TRIPOS>BOND
     1     1     2 2   
     2     2     3 1   
     3     2    10 1   
     4     3     4 ar  
     5     3     9 ar  
     6     4     5 ar  
     7     4    23 1   
     8     5     6 1   
     9     5     7 ar  
    10     6    24 1   
    11     6    25 1   
    12     6    26 1   
    13     7     8 ar  
    14     7    27 1   
    15     8     9 ar  
    16     8    28 1   
    17     9    29 1   
    18    10    11 1   
    19    10    30 1   
    20    10    31 1   
    21    11    12 1   
    22    12    13 1   
    23    12    16 2   
    24    13    14 1   
    25    13    32 1   
    26    14    15 2   
    27    14    17 1   
    28    15    16 1   
    29    15    21 1   
    30    17    18 2   
    31    18    19 1   
    32    18    20 1   
    33    19    33 1   
    34    19    34 1   
    35    20    21 1   
    36    20    35 1   
    37    21    22 2   
@<TRIPOS>SUBSTRUCTURE
     1 YH3         1 TEMP              0 ****  ****    0 ROOT
