@<TRIPOS>MOLECULE
YH4
   35    37     1     0     0
SMALL
No Charge or Current Charge


@<TRIPOS>ATOM
      1 O16          3.1460    -1.6540     1.5280 o          1 YH4      -0.515100
      2 C14          2.8700    -0.6120     0.9440 c          1 YH4       0.595700
      3 C15          3.9490     0.3360     0.4660 ca         1 YH4      -0.174600
      4 C21          5.1510    -0.1280    -0.1370 ca         1 YH4      -0.004300
      5 C22          5.4180    -1.6110    -0.3830 c3         1 YH4      -0.051800
      6 C20          6.1230     0.8040    -0.5520 ca         1 YH4      -0.134000
      7 C19          5.9190     2.1810    -0.3820 ca         1 YH4      -0.073000
      8 C18          4.7340     2.6430     0.2060 ca         1 YH4      -0.128000
      9 C17          3.7560     1.7290     0.6260 ca         1 YH4      -0.070000
     10 C13          1.4070    -0.2000     0.7100 c3         1 YH4      -0.067400
     11 S12          0.2600    -1.6440     0.4410 ss         1 YH4      -0.270300
     12 C10         -1.2930    -0.8550     0.2070 cc         1 YH4       0.540800
     13 N11         -2.4270    -1.5770    -0.0250 na         1 YH4      -0.253500
     14 C05         -3.4420    -0.6400    -0.1590 cc         1 YH4      -0.361600
     15 C06         -4.8630    -0.7670    -0.4170 c          1 YH4       0.625600
     16 O07         -5.4580    -1.8200    -0.5760 o          1 YH4      -0.548000
     17 N01         -5.4620     0.4340    -0.4630 ns         1 YH4      -0.449400
     18 C02         -4.8020     1.5900    -0.2920 cc         1 YH4       0.709800
     19 N08         -5.5300     2.6890    -0.3660 nv         1 YH4      -1.041200
     20 N03         -3.5290     1.7600    -0.0640 nd         1 YH4      -0.736700
     21 C04         -2.8260     0.5750     0.0050 cd         1 YH4       0.562000
     22 N09         -1.4830     0.4480     0.2340 nd         1 YH4      -0.695000
     23 H1           4.5490    -2.1050    -0.8340 hc         1 YH4       0.053700
     24 H2           6.2620    -1.7640    -1.0660 hc         1 YH4       0.053700
     25 H3           5.6580    -2.1280     0.5530 hc         1 YH4       0.053700
     26 H4           7.0460     0.4600    -1.0150 ha         1 YH4       0.116000
     27 H5           6.6780     2.8900    -0.7080 ha         1 YH4       0.116000
     28 H6           4.5740     3.7110     0.3390 ha         1 YH4       0.121000
     29 H7           2.8500     2.1120     1.0920 ha         1 YH4       0.120000
     30 H8           1.0780     0.3830     1.5780 h1         1 YH4       0.106200
     31 H9           1.3760     0.4470    -0.1740 h1         1 YH4       0.106200
     32 H10         -2.4870    -2.5880    -0.0840 hn         1 YH4       0.379000
     33 H11         -6.4480     0.4440    -0.6610 hn         1 YH4       0.324500
     34 H12         -6.4960     2.6180    -0.0690 hn         1 YH4       0.496000
     35 H13         -5.0450     3.5230    -0.0570 hn         1 YH4       0.496000
@<TRIPOS>BOND
     1     1     2 2   
     2     2     3 1   
     3     2    10 1   
     4     3     4 ar  
     5     3     9 ar  
     6     4     5 1   
     7     4     6 ar  
     8     5    23 1   
     9     5    24 1   
    10     5    25 1   
    11     6     7 ar  
    12     6    26 1   
    13     7     8 ar  
    14     7    27 1   
    15     8     9 ar  
    16     8    28 1   
    17     9    29 1   
    18    10    11 1   
    19    10    30 1   
    20    10    31 1   
    21    11    12 1   
    22    12    13 1   
    23    12    22 2   
    24    13    14 1   
    25    13    32 1   
    26    14    15 1   
    27    14    21 2   
    28    15    16 2   
    29    15    17 1   
    30    17    18 1   
    31    17    33 1   
    32    18    19 1   
    33    18    20 2   
    34    19    34 1   
    35    19    35 1   
    36    20    21 1   
    37    21    22 1   
@<TRIPOS>SUBSTRUCTURE
     1 YH4         1 TEMP              0 ****  ****    0 ROOT
