@<TRIPOS>MOLECULE
YH4
   35    37     1     0     0
SMALL
abcg2


@<TRIPOS>ATOM
      1 O16          2.9570    -1.9650     0.0800 o          1 YH4      -0.515100
      2 C14          2.7710    -0.7670     0.0540 c          1 YH4       0.595700
      3 C15          3.8660     0.2310     0.0400 ca         1 YH4      -0.174600
      4 C21          5.2250    -0.1500     0.0430 ca         1 YH4      -0.004300
      5 C22          5.7130    -1.5700     0.0560 c3         1 YH4      -0.051800
      6 C20          6.1820     0.8620     0.0300 ca         1 YH4      -0.134000
      7 C19          5.8380     2.2050     0.0170 ca         1 YH4      -0.073000
      8 C18          4.5020     2.5750     0.0140 ca         1 YH4      -0.128000
      9 C17          3.5330     1.5900     0.0260 ca         1 YH4      -0.070000
     10 C13          1.3460    -0.2530     0.0340 c3         1 YH4      -0.067400
     11 S12          0.2560    -1.6960     0.0630 ss         1 YH4      -0.270300
     12 C10         -1.2740    -0.8690     0.0260 cc         1 YH4       0.540800
     13 N11         -2.4250    -1.5660     0.0360 na         1 YH4      -0.253500
     14 C05         -3.4380    -0.6370     0.0000 cc         1 YH4      -0.361600
     15 C06         -4.8470    -0.7600    -0.0080 c          1 YH4       0.625600
     16 O07         -5.5320    -1.7720     0.0190 o          1 YH4      -0.548000
     17 N01         -5.4260     0.5100    -0.0520 ns         1 YH4      -0.449400
     18 C02         -4.7480     1.6980    -0.0810 cc         1 YH4       0.709800
     19 N08         -5.4990     2.8120    -0.1710 nv         1 YH4      -1.041200
     20 N03         -3.4460     1.7830    -0.0660 nd         1 YH4      -0.736700
     21 C04         -2.8110     0.5940    -0.0290 cd         1 YH4       0.562000
     22 N09         -1.4600     0.4340    -0.0120 nd         1 YH4      -0.695000
     23 H1           5.3630    -2.1320    -0.8090 hc         1 YH4       0.053700
     24 H2           6.8020    -1.5860     0.0460 hc         1 YH4       0.053700
     25 H3           5.3790    -2.1100     0.9410 hc         1 YH4       0.053700
     26 H4           7.2300     0.5880     0.0320 ha         1 YH4       0.116000
     27 H5           6.6140     2.9590     0.0080 ha         1 YH4       0.116000
     28 H6           4.2170     3.6190     0.0040 ha         1 YH4       0.121000
     29 H7           2.4950     1.8960     0.0230 ha         1 YH4       0.120000
     30 H8           1.1480     0.3830     0.8980 h1         1 YH4       0.106200
     31 H9           1.1580     0.3410    -0.8620 h1         1 YH4       0.106200
     32 H10         -2.5280    -2.5690     0.0640 hn         1 YH4       0.379000
     33 H11         -6.4370     0.5300    -0.0710 hn         1 YH4       0.324500
     34 H12         -6.4770     2.7870     0.0640 hn         1 YH4       0.496000
     35 H13         -5.0330     3.6900    -0.0110 hn         1 YH4       0.496000
@<TRIPOS>BOND
     1     1     2 2   
     2     2     3 1   
     3     2    10 1   
     4     3     4 ar  
     5     3     9 ar  
     6     4     5 1   
     7     4     6 ar  
     8     5    23 1   
     9     5    24 1   
    10     5    25 1   
    11     6     7 ar  
    12     6    26 1   
    13     7     8 ar  
    14     7    27 1   
    15     8     9 ar  
    16     8    28 1   
    17     9    29 1   
    18    10    11 1   
    19    10    30 1   
    20    10    31 1   
    21    11    12 1   
    22    12    13 1   
    23    12    22 2   
    24    13    14 1   
    25    13    32 1   
    26    14    15 1   
    27    14    21 2   
    28    15    16 2   
    29    15    17 1   
    30    17    18 1   
    31    17    33 1   
    32    18    19 1   
    33    18    20 2   
    34    19    34 1   
    35    19    35 1   
    36    20    21 1   
    37    21    22 1   
@<TRIPOS>SUBSTRUCTURE
     1 YH4         1 TEMP              0 ****  ****    0 ROOT
