@<TRIPOS>MOLECULE
YH5
   36    38     1     0     0
SMALL
abcg2


@<TRIPOS>ATOM
      1 C1           3.9130     1.8700     0.0440 c          1 YH5       0.521500
      2 O1           3.4290     2.9900     0.0770 o          1 YH5      -0.518000
      3 N1           1.9130     0.3050     0.1000 nc         1 YH5      -0.616000
      4 S1           0.4600    -2.0140     0.1080 ss         1 YH5      -0.280300
      5 C10         -4.4110     1.6350     0.0580 ca         1 YH5      -0.193500
      6 C11         -5.6710     1.0290    -0.0050 ca         1 YH5       0.177100
      7 C12         -5.7610    -0.3650    -0.0350 ca         1 YH5      -0.193500
      8 C13         -4.6080    -1.1270    -0.0040 ca         1 YH5      -0.018500
      9 C14         -8.0250     1.2990    -0.1020 c3         1 YH5       0.146900
     10 N2           3.1190    -1.5600     0.0260 na         1 YH5      -0.293500
     11 C2           3.2530     0.6100     0.0550 cc         1 YH5       0.095500
     12 O2          -2.2190    -2.6060     0.0790 o          1 YH5      -0.522100
     13 N3           5.3510    -0.6540    -0.0520 nd         1 YH5      -0.705100
     14 C3           1.8730    -0.9920     0.0800 cd         1 YH5       0.496800
     15 O3          -6.7210     1.8520    -0.0330 os         1 YH5      -0.335100
     16 C4           4.0180    -0.5410     0.0070 cd         1 YH5       0.150400
     17 N4           5.3020     1.6960    -0.0140 ns         1 YH5      -0.457400
     18 C5           5.9640     0.5040    -0.0610 cc         1 YH5       0.732800
     19 N5           7.3050     0.5520    -0.0810 nv         1 YH5      -1.040200
     20 C6          -0.7990    -0.7180     0.1090 c3         1 YH5      -0.065400
     21 C7          -2.1500    -1.3930     0.0820 c          1 YH5       0.602700
     22 C8          -3.3460    -0.5350     0.0560 ca         1 YH5      -0.221600
     23 C9          -3.2710     0.8630     0.0860 ca         1 YH5      -0.018500
     24 H2          -4.3400     2.7150     0.0830 ha         1 YH5       0.128000
     25 H3          -6.7180    -0.8680    -0.0850 ha         1 YH5       0.128000
     26 H4          -4.6960    -2.2050    -0.0280 ha         1 YH5       0.128000
     27 H5          -8.2480     0.6800     0.7710 h1         1 YH5       0.045367
     28 H6          -8.7130     2.1400    -0.1230 h1         1 YH5       0.045367
     29 H7          -8.1640     0.7040    -1.0060 h1         1 YH5       0.045367
     30 H8           3.3390    -2.5450    -0.0050 hn         1 YH5       0.375000
     31 H9           5.8490     2.5470    -0.0240 hn         1 YH5       0.322500
     32 H10          7.7840     1.4040    -0.3210 hn         1 YH5       0.499000
     33 H11          7.7940    -0.3020    -0.2900 hn         1 YH5       0.499000
     34 H12         -0.6980    -0.0920     0.9980 h1         1 YH5       0.104700
     35 H13         -0.6720    -0.0700    -0.7600 h1         1 YH5       0.104700
     36 H14         -2.3150     1.3690     0.1350 ha         1 YH5       0.128000
@<TRIPOS>BOND
     1     1     2 2   
     2     1    11 1   
     3     1    17 1   
     4     3    11 1   
     5     3    14 2   
     6     4    14 1   
     7     4    20 1   
     8     5     6 ar  
     9     5    23 ar  
    10     5    24 1   
    11     6     7 ar  
    12     6    15 1   
    13     7     8 ar  
    14     7    25 1   
    15     8    22 ar  
    16     8    26 1   
    17     9    15 1   
    18     9    27 1   
    19     9    28 1   
    20     9    29 1   
    21    10    14 1   
    22    10    16 1   
    23    10    30 1   
    24    11    16 2   
    25    12    21 2   
    26    13    16 1   
    27    13    18 2   
    28    17    18 1   
    29    17    31 1   
    30    18    19 1   
    31    19    32 1   
    32    19    33 1   
    33    20    21 1   
    34    20    34 1   
    35    20    35 1   
    36    21    22 1   
    37    22    23 ar  
    38    23    36 1   
@<TRIPOS>SUBSTRUCTURE
     1 YH5         1 TEMP              0 ****  ****    0 ROOT
