@<TRIPOS>MOLECULE
YH5
   36    38     1     0     0
SMALL
No Charge or Current Charge


@<TRIPOS>ATOM
      1 C1           4.0090     1.8900     0.0180 c          1 YH5       0.521500
      2 O1           3.4310     2.9680     0.0100 o          1 YH5      -0.518000
      3 N1           2.0280     0.2300     0.0240 nc         1 YH5      -0.616000
      4 S1           0.5970    -2.1190     0.0420 ss         1 YH5      -0.280300
      5 C10         -4.4280     1.6250    -0.0130 ca         1 YH5      -0.193500
      6 C11         -5.7130     1.0660    -0.0110 ca         1 YH5       0.177100
      7 C12         -5.8570    -0.3360     0.0020 ca         1 YH5      -0.193500
      8 C13         -4.7200    -1.1620     0.0140 ca         1 YH5      -0.018500
      9 C14         -8.1510     1.4530    -0.0230 c3         1 YH5       0.146900
     10 N2           3.2890    -1.6510     0.0480 na         1 YH5      -0.293500
     11 C2           3.3700     0.5520     0.0260 cc         1 YH5       0.095500
     12 O2          -2.3560    -2.7370     0.0370 o          1 YH5      -0.522100
     13 N3           5.5360    -0.5880     0.0470 nd         1 YH5      -0.705100
     14 C3           2.0320    -1.0950     0.0370 cd         1 YH5       0.496800
     15 O3          -6.7920     1.9260    -0.0230 os         1 YH5      -0.335100
     16 C4           4.1460    -0.5840     0.0410 cd         1 YH5       0.150400
     17 N4           5.3660     1.7980     0.0220 ns         1 YH5      -0.457400
     18 C5           6.0400     0.6260     0.0360 cc         1 YH5       0.732800
     19 N5           7.3560     0.7150     0.0350 nv         1 YH5      -1.040200
     20 C6          -0.8040    -0.8890     0.0250 c3         1 YH5      -0.065400
     21 C7          -2.2100    -1.5190     0.0260 c          1 YH5       0.602700
     22 C8          -3.4200    -0.6040     0.0130 ca         1 YH5      -0.221600
     23 C9          -3.2880     0.8040    -0.0010 ca         1 YH5      -0.018500
     24 H2          -4.3150     2.7060    -0.0230 ha         1 YH5       0.128000
     25 H3          -6.8370    -0.8030     0.0040 ha         1 YH5       0.128000
     26 H4          -4.8570    -2.2420     0.0250 ha         1 YH5       0.128000
     27 H5          -8.3560     0.8560     0.8740 h1         1 YH5       0.045367
     28 H6          -8.8480     2.3000    -0.0340 h1         1 YH5       0.045367
     29 H7          -8.3500     0.8380    -0.9100 h1         1 YH5       0.045367
     30 H8           3.5200    -2.6320     0.0590 hn         1 YH5       0.375000
     31 H9           5.8810     2.6630     0.0420 hn         1 YH5       0.322500
     32 H10          7.7550     1.5120    -0.4450 hn         1 YH5       0.499000
     33 H11          7.8220    -0.1670    -0.1380 hn         1 YH5       0.499000
     34 H12         -0.7270    -0.2440     0.9080 h1         1 YH5       0.104700
     35 H13         -0.7200    -0.2620    -0.8710 h1         1 YH5       0.104700
     36 H14         -2.3100     1.2830    -0.0020 ha         1 YH5       0.128000
@<TRIPOS>BOND
     1     1     2 2   
     2     1    11 1   
     3     1    17 1   
     4     3    11 1   
     5     3    14 2   
     6     4    14 1   
     7     4    20 1   
     8     5     6 ar  
     9     5    23 ar  
    10     5    24 1   
    11     6     7 ar  
    12     6    15 1   
    13     7     8 ar  
    14     7    25 1   
    15     8    22 ar  
    16     8    26 1   
    17     9    15 1   
    18     9    27 1   
    19     9    28 1   
    20     9    29 1   
    21    10    14 1   
    22    10    16 1   
    23    10    30 1   
    24    11    16 2   
    25    12    21 2   
    26    13    16 1   
    27    13    18 2   
    28    17    18 1   
    29    17    31 1   
    30    18    19 1   
    31    19    32 1   
    32    19    33 1   
    33    20    21 1   
    34    20    34 1   
    35    20    35 1   
    36    21    22 1   
    37    22    23 ar  
    38    23    36 1   
@<TRIPOS>SUBSTRUCTURE
     1 YH5         1 TEMP              0 ****  ****    0 ROOT
