@<TRIPOS>MOLECULE
YH6
   35    37     1     0     0
SMALL
abcg2


@<TRIPOS>ATOM
      1 O07          5.7550    -1.4880     0.0040 o          1 YH6      -0.548000
      2 C06          4.9910    -0.5350    -0.0220 c          1 YH6       0.625600
      3 N01          5.4660     0.7770    -0.0810 ns         1 YH6      -0.449400
      4 C02          4.6950     1.9070    -0.1150 cc         1 YH6       0.710800
      5 N08          5.3510     3.0760    -0.2240 nv         1 YH6      -1.042200
      6 N03          3.3900     1.8870    -0.0870 nd         1 YH6      -0.738700
      7 C04          2.8520     0.6510    -0.0330 cd         1 YH6       0.563000
      8 C05          3.5760    -0.5250    -0.0010 cc         1 YH6      -0.362600
      9 N11          2.6420    -1.5330     0.0480 na         1 YH6      -0.252500
     10 N09          1.5190     0.3840    -0.0050 nd         1 YH6      -0.694000
     11 C10          1.4400    -0.9300     0.0410 cc         1 YH6       0.540800
     12 S12         -0.0180    -1.8800     0.0820 ss         1 YH6      -0.270300
     13 C13         -1.2280    -0.5370     0.0600 c3         1 YH6      -0.065400
     14 C14         -2.6000    -1.1670     0.0410 c          1 YH6       0.596700
     15 O16         -2.7110    -2.3750     0.0460 o          1 YH6      -0.514100
     16 C15         -3.7740    -0.2690     0.0120 ca         1 YH6      -0.182600
     17 C17         -5.0530    -0.8280    -0.0500 ca         1 YH6      -0.055000
     18 C18         -6.1710    -0.0170    -0.0810 ca         1 YH6      -0.127000
     19 C19         -6.0520     1.3740    -0.0480 ca         1 YH6      -0.040300
     20 C22         -7.2690     2.2470    -0.0500 c3         1 YH6      -0.054800
     21 C20         -4.7740     1.9260     0.0120 ca         1 YH6      -0.127000
     22 C21         -3.6490     1.1200     0.0410 ca         1 YH6      -0.055000
     23 H1           6.4730     0.8780    -0.1070 hn         1 YH6       0.324500
     24 H2           6.3330     3.1330    -0.0130 hn         1 YH6       0.496500
     25 H3           4.8200     3.9160    -0.0690 hn         1 YH6       0.496500
     26 H4           2.8260    -2.5240     0.0760 hn         1 YH6       0.380000
     27 H6          -1.1060     0.0980     0.9400 h1         1 YH6       0.106700
     28 H7          -1.0810     0.0920    -0.8190 h1         1 YH6       0.106700
     29 H8          -5.1720    -1.9030    -0.0770 ha         1 YH6       0.127500
     30 H9          -7.1540    -0.4680    -0.1350 ha         1 YH6       0.118000
     31 H10         -7.6760     2.3380     0.9590 hc         1 YH6       0.047367
     32 H11         -7.0430     3.2520    -0.4030 hc         1 YH6       0.047367
     33 H12         -8.0580     1.8320    -0.6770 hc         1 YH6       0.047367
     34 H13         -4.6560     3.0020     0.0330 ha         1 YH6       0.118000
     35 H14         -2.6760     1.5920     0.0870 ha         1 YH6       0.127500
@<TRIPOS>BOND
     1     1     2 2   
     2     2     3 1   
     3     2     8 1   
     4     3     4 1   
     5     3    23 1   
     6     4     5 1   
     7     4     6 2   
     8     5    24 1   
     9     5    25 1   
    10     6     7 1   
    11     7     8 2   
    12     7    10 1   
    13     8     9 1   
    14     9    11 1   
    15     9    26 1   
    16    10    11 2   
    17    11    12 1   
    18    12    13 1   
    19    13    14 1   
    20    13    27 1   
    21    13    28 1   
    22    14    15 2   
    23    14    16 1   
    24    16    17 ar  
    25    16    22 ar  
    26    17    18 ar  
    27    17    29 1   
    28    18    19 ar  
    29    18    30 1   
    30    19    20 1   
    31    19    21 ar  
    32    20    31 1   
    33    20    32 1   
    34    20    33 1   
    35    21    22 ar  
    36    21    34 1   
    37    22    35 1   
@<TRIPOS>SUBSTRUCTURE
     1 YH6         1 TEMP              0 ****  ****    0 ROOT
