@<TRIPOS>MOLECULE
YH6
   35    37     1     0     0
SMALL
No Charge or Current Charge


@<TRIPOS>ATOM
      1 O07          5.8870    -1.3860    -0.0290 o          1 YH6      -0.548000
      2 C06          5.1400    -0.4220    -0.0480 c          1 YH6       0.625600
      3 N01          5.5740     0.8480    -0.0880 ns         1 YH6      -0.449400
      4 C02          4.7460     1.9050    -0.1150 cc         1 YH6       0.710800
      5 N08          5.3240     3.0910    -0.1530 nv         1 YH6      -1.042200
      6 N03          3.4420     1.9030    -0.1070 nd         1 YH6      -0.738700
      7 C04          2.9020     0.6350    -0.0630 cd         1 YH6       0.563000
      8 C05          3.6910    -0.4870    -0.0320 cc         1 YH6      -0.362600
      9 N11          2.8020    -1.5510     0.0070 na         1 YH6      -0.252500
     10 N09          1.5680     0.3290    -0.0430 nd         1 YH6      -0.694000
     11 C10          1.5590    -0.9870    -0.0010 cc         1 YH6       0.540800
     12 S12          0.1080    -1.9760     0.0400 ss         1 YH6      -0.270300
     13 C13         -1.2510    -0.6980     0.0090 c3         1 YH6      -0.065400
     14 C14         -2.6760    -1.2810     0.0380 c          1 YH6       0.596700
     15 O16         -2.8610    -2.4930     0.0790 o          1 YH6      -0.514100
     16 C15         -3.8550    -0.3250     0.0130 ca         1 YH6      -0.182600
     17 C17         -5.1740    -0.8360     0.0380 ca         1 YH6      -0.055000
     18 C18         -6.2800     0.0300     0.0160 ca         1 YH6      -0.127000
     19 C19         -6.0950     1.4220    -0.0320 ca         1 YH6      -0.040300
     20 C22         -7.2930     2.3580    -0.0530 c3         1 YH6      -0.054800
     21 C20         -4.7880     1.9400    -0.0550 ca         1 YH6      -0.127000
     22 C21         -3.6770     1.0790    -0.0330 ca         1 YH6      -0.055000
     23 H1           6.5690     0.9890    -0.1260 hn         1 YH6       0.324500
     24 H2           6.2250     3.1760     0.3000 hn         1 YH6       0.496500
     25 H3           4.6870     3.8620     0.0090 hn         1 YH6       0.496500
     26 H4           3.0040    -2.5440     0.0360 hn         1 YH6       0.380000
     27 H6          -1.1430    -0.0370     0.8770 h1         1 YH6       0.106700
     28 H7          -1.1560    -0.0940    -0.9010 h1         1 YH6       0.106700
     29 H8          -5.3500    -1.9100     0.0750 ha         1 YH6       0.127500
     30 H9          -7.2860    -0.3850     0.0370 ha         1 YH6       0.118000
     31 H10         -7.5880     2.6360     0.9660 hc         1 YH6       0.047367
     32 H11         -7.0700     3.2820    -0.6000 hc         1 YH6       0.047367
     33 H12         -8.1590     1.8900    -0.5370 hc         1 YH6       0.047367
     34 H13         -4.6310     3.0150    -0.0880 ha         1 YH6       0.118000
     35 H14         -2.6850     1.5230    -0.0520 ha         1 YH6       0.127500
@<TRIPOS>BOND
     1     1     2 2   
     2     2     3 1   
     3     2     8 1   
     4     3     4 1   
     5     3    23 1   
     6     4     5 1   
     7     4     6 2   
     8     5    24 1   
     9     5    25 1   
    10     6     7 1   
    11     7     8 2   
    12     7    10 1   
    13     8     9 1   
    14     9    11 1   
    15     9    26 1   
    16    10    11 2   
    17    11    12 1   
    18    12    13 1   
    19    13    14 1   
    20    13    27 1   
    21    13    28 1   
    22    14    15 2   
    23    14    16 1   
    24    16    17 ar  
    25    16    22 ar  
    26    17    18 ar  
    27    17    29 1   
    28    18    19 ar  
    29    18    30 1   
    30    19    20 1   
    31    19    21 ar  
    32    20    31 1   
    33    20    32 1   
    34    20    33 1   
    35    21    22 ar  
    36    21    34 1   
    37    22    35 1   
@<TRIPOS>SUBSTRUCTURE
     1 YH6         1 TEMP              0 ****  ****    0 ROOT
