@<TRIPOS>MOLECULE
YH7
   16    17     1     0     0
SMALL
No Charge or Current Charge


@<TRIPOS>ATOM
      1 C01          1.2480     0.3670    -0.0500 cc         1 YH7      -0.032000
      2 C02          0.7240    -0.8920    -0.0170 cc         1 YH7       0.060000
      3 N03         -0.5350    -1.2220     0.0070 nd         1 YH7      -0.354400
      4 C04         -1.4670    -0.1480    -0.0050 cs         1 YH7       0.545800
      5 N05         -1.0020     1.1640    -0.0350 ns         1 YH7      -0.474600
      6 C06          0.3570     1.4200    -0.0560 cd         1 YH7       0.408600
      7 N07          2.6250     0.3420    -0.0650 nc         1 YH7      -0.644000
      8 C08          2.9370    -0.9780    -0.0420 cd         1 YH7       0.439400
      9 N09          1.7690    -1.7470    -0.0120 na         1 YH7      -0.329500
     10 N10          0.6960     2.7310    -0.0890 nv         1 YH7      -0.956000
     11 S11         -3.1120    -0.4280     0.0100 s          1 YH7      -0.607400
     12 HN10         0.0650     3.4260     0.2990 hn         1 YH7       0.520000
     13 HN1A         1.6870     2.9440     0.0120 hn         1 YH7       0.520000
     14 H3          -1.6900     1.9010    -0.0690 hn         1 YH7       0.461000
     15 H08          3.9280    -1.4200    -0.0440 h5         1 YH7       0.064100
     16 H5           1.7310    -2.7560     0.0100 hn         1 YH7       0.378000
@<TRIPOS>BOND
     1     1     2 1   
     2     1     6 2   
     3     1     7 1   
     4     2     3 2   
     5     2     9 1   
     6     3     4 1   
     7     4     5 1   
     8     4    11 2   
     9     5     6 1   
    10     5    14 1   
    11     6    10 1   
    12     7     8 2   
    13     8     9 1   
    14     8    15 1   
    15     9    16 1   
    16    10    12 1   
    17    10    13 1   
@<TRIPOS>SUBSTRUCTURE
     1 YH7         1 TEMP              0 ****  ****    0 ROOT
