@<TRIPOS>MOLECULE
YH7
   16    17     1     0     0
SMALL
abcg2


@<TRIPOS>ATOM
      1 C01          1.2560     0.3740    -0.0120 cc         1 YH7      -0.032000
      2 C02          0.6960    -0.8990    -0.0260 cc         1 YH7       0.060000
      3 N03         -0.5920    -1.2300    -0.0230 nd         1 YH7      -0.354400
      4 C04         -1.4340    -0.2100    -0.0060 cs         1 YH7       0.545800
      5 N05         -0.9360     1.0940     0.0070 ns         1 YH7      -0.474600
      6 C06          0.3670     1.4510     0.0060 cd         1 YH7       0.408600
      7 N07          2.6250     0.3210    -0.0190 nc         1 YH7      -0.644000
      8 C08          2.8880    -0.9510    -0.0370 cd         1 YH7       0.439400
      9 N09          1.7660    -1.7300    -0.0420 na         1 YH7      -0.329500
     10 N10          0.7200     2.7220     0.0200 nv         1 YH7      -0.956000
     11 S11         -3.1140    -0.3760     0.0010 s          1 YH7      -0.607400
     12 HN10         0.0460     3.4700     0.0480 hn         1 YH7       0.520000
     13 HN1A         1.6950     2.9720     0.0220 hn         1 YH7       0.520000
     14 H3          -1.6390     1.8210     0.0150 hn         1 YH7       0.461000
     15 H08          3.8750    -1.3870    -0.0480 h5         1 YH7       0.064100
     16 H5           1.7420    -2.7390    -0.0530 hn         1 YH7       0.378000
@<TRIPOS>BOND
     1     1     2 1   
     2     1     6 2   
     3     1     7 1   
     4     2     3 2   
     5     2     9 1   
     6     3     4 1   
     7     4     5 1   
     8     4    11 2   
     9     5     6 1   
    10     5    14 1   
    11     6    10 1   
    12     7     8 2   
    13     8     9 1   
    14     8    15 1   
    15     9    16 1   
    16    10    12 1   
    17    10    13 1   
@<TRIPOS>SUBSTRUCTURE
     1 YH7         1 TEMP              0 ****  ****    0 ROOT
