@<TRIPOS>MOLECULE
YHA
   27    26     1     0     0
SMALL
bcc


@<TRIPOS>ATOM
      1 N          -41.9640    -3.1420    -6.5220 n8         1 YHA      -0.893800
      2 CA         -42.2070    -2.0950    -7.5070 c3         1 YHA       0.010500
      3 C          -41.8760    -0.6540    -7.0350 c          1 YHA       0.904600
      4 O          -41.8350     0.2170    -7.9300 o          1 YHA      -0.838300
      5 CB         -43.6590    -2.1500    -7.9900 c3         1 YHA      -0.049400
      6 CG         -44.0480    -3.4710    -8.6420 c3         1 YHA      -0.075400
      7 CD         -45.4740    -3.4670    -9.1740 c3         1 YHA      -0.105400
      8 CE         -45.9040    -4.7740    -9.8340 c3         1 YHA       0.112000
      9 NZ         -45.1440    -5.1170   -11.0160 ns         1 YHA      -0.592900
     10 CX         -44.0860    -5.9570   -11.1320 c          1 YHA       0.781100
     11 NQ         -43.7130    -6.6430   -10.0090 nt         1 YHA      -0.663000
     12 OQ         -43.5260    -6.1390   -12.2090 o          1 YHA      -0.668100
     13 H2         -40.9700    -3.1770    -6.3280 hn         1 YHA       0.326300
     14 H          -42.3760    -2.8380    -5.6470 hn         1 YHA       0.326300
     15 HA         -41.5710    -2.3100    -8.3750 h1         1 YHA       0.037700
     16 HB2        -43.8180    -1.3390    -8.7050 hc         1 YHA       0.038700
     17 HB3        -44.3310    -1.9480    -7.1460 hc         1 YHA       0.038700
     18 HG2        -43.9260    -4.2810    -7.9180 hc         1 YHA       0.034700
     19 HG3        -43.3470    -3.6770    -9.4580 hc         1 YHA       0.034700
     20 HD2        -45.6000    -2.6500    -9.8920 hc         1 YHA       0.041700
     21 HD3        -46.1710    -3.2620    -8.3550 hc         1 YHA       0.041700
     22 HE2        -46.9540    -4.7000   -10.1260 h1         1 YHA       0.035700
     23 HE3        -45.8570    -5.5960    -9.1180 h1         1 YHA       0.035700
     24 HZ1        -45.3740    -4.6200   -11.8620 hn         1 YHA       0.317500
     25 HQ2        -42.8300    -7.1210   -10.0750 hn         1 YHA       0.302500
     26 HQ1        -43.9130    -6.2800    -9.0920 hn         1 YHA       0.302500
     27 OXT        -41.7020    -0.4760    -5.8130 o          1 YHA      -0.838300
@<TRIPOS>BOND
     1     1     2 1   
     2     1    13 1   
     3     1    14 1   
     4     2     3 1   
     5     2     5 1   
     6     2    15 1   
     7     3     4 1   
     8     3    27 1   
     9     5     6 1   
    10     5    16 1   
    11     5    17 1   
    12     6     7 1   
    13     6    18 1   
    14     6    19 1   
    15     7     8 1   
    16     7    20 1   
    17     7    21 1   
    18     8     9 1   
    19     8    22 1   
    20     8    23 1   
    21     9    10 1   
    22     9    24 1   
    23    10    11 1   
    24    10    12 2   
    25    11    25 1   
    26    11    26 1   
@<TRIPOS>SUBSTRUCTURE
     1 YHA         1 TEMP              0 ****  ****    0 ROOT
