@<TRIPOS>MOLECULE
YHA
   27    26     1     0     0
SMALL
No Charge or Current Charge


@<TRIPOS>ATOM
      1 N          -41.9050    -3.1130    -6.4010 n8         1 YHA      -0.893800
      2 CA         -42.1910    -2.0720    -7.4620 c3         1 YHA       0.010500
      3 C          -41.8200    -0.5650    -7.1090 c          1 YHA       0.904600
      4 O          -41.0460     0.0380    -7.8450 o          1 YHA      -0.838300
      5 CB         -43.6670    -2.1630    -7.9380 c3         1 YHA      -0.049400
      6 CG         -44.0350    -3.4910    -8.6440 c3         1 YHA      -0.075400
      7 CD         -45.4960    -3.5190    -9.1510 c3         1 YHA      -0.105400
      8 CE         -45.9290    -4.8490    -9.8080 c3         1 YHA       0.112000
      9 NZ         -45.2070    -5.1340   -11.0560 ns         1 YHA      -0.592900
     10 CX         -44.1030    -5.9200   -11.2160 c          1 YHA       0.781100
     11 NQ         -43.6300    -6.5120   -10.1130 nt         1 YHA      -0.663000
     12 OQ         -43.5790    -6.0830   -12.2990 o          1 YHA      -0.668100
     13 H2         -40.9110    -3.0750    -6.1520 hn         1 YHA       0.326300
     14 H          -42.3860    -2.8390    -5.5380 hn         1 YHA       0.326300
     15 HA         -41.5630    -2.3350    -8.3250 h1         1 YHA       0.037700
     16 HB2        -43.8550    -1.3390    -8.6390 hc         1 YHA       0.038700
     17 HB3        -44.3360    -2.0030    -7.0840 hc         1 YHA       0.038700
     18 HG2        -43.8830    -4.3290    -7.9520 hc         1 YHA       0.034700
     19 HG3        -43.3530    -3.6420    -9.4900 hc         1 YHA       0.034700
     20 HD2        -45.6480    -2.7020    -9.8680 hc         1 YHA       0.041700
     21 HD3        -46.1660    -3.3230    -8.3060 hc         1 YHA       0.041700
     22 HE2        -46.9980    -4.7850   -10.0500 h1         1 YHA       0.035700
     23 HE3        -45.8100    -5.6750    -9.0950 h1         1 YHA       0.035700
     24 HZ1        -45.5430    -4.7030   -11.9070 hn         1 YHA       0.317500
     25 HQ2        -42.8150    -7.1000   -10.1840 hn         1 YHA       0.302500
     26 HQ1        -44.0800    -6.3450    -9.2290 hn         1 YHA       0.302500
     27 OXT        -42.2210    -0.0900    -6.0500 o          1 YHA      -0.838300
@<TRIPOS>BOND
     1     1     2 1   
     2     1    13 1   
     3     1    14 1   
     4     2     3 1   
     5     2     5 1   
     6     2    15 1   
     7     3     4 1   
     8     3    27 1   
     9     5     6 1   
    10     5    16 1   
    11     5    17 1   
    12     6     7 1   
    13     6    18 1   
    14     6    19 1   
    15     7     8 1   
    16     7    20 1   
    17     7    21 1   
    18     8     9 1   
    19     8    22 1   
    20     8    23 1   
    21     9    10 1   
    22     9    24 1   
    23    10    11 1   
    24    10    12 2   
    25    11    25 1   
    26    11    26 1   
@<TRIPOS>SUBSTRUCTURE
     1 YHA         1 TEMP              0 ****  ****    0 ROOT
