@<TRIPOS>MOLECULE
YHB
  109   115     1     0     0
SMALL
No Charge or Current Charge


@<TRIPOS>ATOM
      1 C02        -15.2170    78.6210   -22.6620 c          1 YHB       0.604100
      2 C04        -16.3230    79.4800   -20.5710 c3         1 YHB       0.165000
      3 C05        -16.9440    80.8390   -20.2470 ca         1 YHB      -0.097300
      4 C06        -16.1500    81.9110   -19.7880 ca         1 YHB      -0.089000
      5 C07        -16.7330    83.1610   -19.5080 ca         1 YHB      -0.100500
      6 C08        -18.1140    83.3620   -19.6920 ca         1 YHB      -0.006000
      7 C09        -18.7090    84.6600   -19.3770 cc         1 YHB      -0.175000
      8 C11        -19.4920    86.7710   -18.5520 cc         1 YHB       0.416300
      9 C13        -19.4740    85.3700   -20.2830 cd         1 YHB       0.297300
     10 C14        -19.8250    84.9760   -21.6940 c3         1 YHB      -0.121400
     11 C15        -18.9090    82.2910   -20.1440 ca         1 YHB      -0.100500
     12 C16        -18.3280    81.0410   -20.4230 ca         1 YHB      -0.089000
     13 C17        -15.5970    78.8500   -19.3650 c3         1 YHB      -0.102100
     14 C18        -14.2310    79.1610   -23.7520 c5         1 YHB       0.045700
     15 C20        -12.9560    76.9920   -24.2040 c          1 YHB       0.629100
     16 C22        -12.5150    75.9020   -25.2600 c3         1 YHB       0.061700
     17 C26         -9.3680    77.4510   -26.9520 ca         1 YHB      -0.070600
     18 C27         -8.1210    78.0550   -26.6820 ca         1 YHB      -0.175000
     19 C28         -7.2610    78.4080   -27.7410 ca         1 YHB       0.608900
     20 C30         -4.7950    78.5460   -28.3030 c6         1 YHB       0.209300
     21 C31         -3.9050    77.5950   -27.4380 c6         1 YHB       0.149300
     22 C33         -2.4410    77.6580   -25.3500 ca         1 YHB       0.189000
     23 C34         -1.5960    78.4720   -24.5230 ca         1 YHB       0.557900
     24 C38         -1.0150    75.7990   -24.6610 cp         1 YHB       0.316500
     25 C39         -0.6560    74.3420   -24.6580 cp         1 YHB      -0.165500
     26 C40         -1.6860    73.3740   -24.5300 ca         1 YHB      -0.065000
     27 C41         -1.3960    72.0000   -24.5180 ca         1 YHB      -0.150000
     28 C42         -0.0710    71.5600   -24.6380 ca         1 YHB      -0.062000
     29 C43          0.9640    72.4980   -24.7770 ca         1 YHB      -0.208000
     30 C44          0.6820    73.8750   -24.7900 ca         1 YHB       0.166100
     31 C46         -2.1230    76.2850   -25.4000 ca         1 YHB      -0.128000
     32 C47         -4.7430    78.7180   -25.3670 c6         1 YHB       0.149300
     33 C48         -5.6210    79.6610   -26.2540 c6         1 YHB       0.209300
     34 C50         -8.7620    77.6200   -29.3050 ca         1 YHB       0.381900
     35 C51         -9.6790    77.2350   -28.3140 ca         1 YHB      -0.208000
     36 C52        -12.2370    74.4370   -24.7360 c3         1 YHB      -0.046000
     37 C53        -13.4510    73.9190   -23.9120 c3         1 YHB      -0.088100
     38 C54        -12.0690    73.4870   -25.9580 c3         1 YHB      -0.088100
     39 C55        -10.9480    74.3330   -23.8710 c3         1 YHB      -0.088100
     40 C56        -13.8120    78.4970   -26.1030 c5         1 YHB       0.117000
     41 C57        -14.2120    80.0010   -26.0420 c5         1 YHB       0.157300
     42 C59        -15.0550    80.0420   -24.7460 c5         1 YHB      -0.115400
     43 N03        -15.4250    79.6030   -21.7160 ns         1 YHB      -0.498900
     44 N12        -19.9340    86.5860   -19.7950 nd         1 YHB      -0.638000
     45 N19        -13.6500    78.1380   -24.6720 n          1 YHB      -0.402800
     46 N23        -11.4530    76.3980   -26.1780 ns         1 YHB      -0.502900
     47 N29         -6.0030    79.0130   -27.5470 nh         1 YHB      -0.769300
     48 N32         -3.5500    78.1760   -26.1000 nh         1 YHB      -0.780400
     49 N35         -1.7220    79.8250   -24.3850 nv         1 YHB      -1.077900
     50 N36         -0.5560    77.9670   -23.8320 nb         1 YHB      -0.408000
     51 N37         -0.2770    76.6480   -23.9000 nb         1 YHB      -0.261000
     52 N49         -7.5740    78.1960   -29.0290 nb         1 YHB      -0.739000
     53 O01        -15.7640    77.5240   -22.6200 o          1 YHB      -0.605100
     54 O21        -12.7340    76.8780   -23.0030 o          1 YHB      -0.583100
     55 O25        -10.0540    77.3570   -24.6540 o          1 YHB      -0.582100
     56 O45          1.7220    74.7380   -24.9710 oh         1 YHB      -0.518100
     57 O58        -13.0730    80.8650   -25.9540 oh         1 YHB      -0.660000
     58 S10        -18.4780    85.5160   -17.8830 ss         1 YHB      -0.043400
     59 H1         -17.1380    78.7960   -20.8530 h1         1 YHB       0.076700
     60 H2         -15.0780    81.7820   -19.6490 ha         1 YHB       0.118000
     61 H3         -16.1080    83.9780   -19.1550 ha         1 YHB       0.117500
     62 H4         -19.7130    87.6430   -17.9490 h5         1 YHB       0.053100
     63 H5         -20.0490    85.8570   -22.3090 hc         1 YHB       0.052700
     64 H6         -18.9950    84.4440   -22.1730 hc         1 YHB       0.052700
     65 H7         -20.7060    84.3240   -21.7110 hc         1 YHB       0.052700
     66 H8         -19.9810    82.4220   -20.2690 ha         1 YHB       0.117500
     67 H9         -18.9600    80.2270   -20.7750 ha         1 YHB       0.118000
     68 H10        -16.2800    78.7600   -18.5120 hc         1 YHB       0.046367
     69 H11        -15.2350    77.8460   -19.6170 hc         1 YHB       0.046367
     70 H12        -14.7360    79.4570   -19.0560 hc         1 YHB       0.046367
     71 H13        -13.4310    79.7350   -23.2660 h1         1 YHB       0.071700
     72 H14        -13.4060    75.8030   -25.8940 h1         1 YHB       0.056700
     73 H15         -7.8220    78.2300   -25.6550 ha         1 YHB       0.146000
     74 H16         -5.0650    78.0240   -29.2330 h1         1 YHB       0.072950
     75 H17         -4.1910    79.4140   -28.6050 h1         1 YHB       0.072950
     76 H18         -4.4480    76.6480   -27.2980 h1         1 YHB       0.049950
     77 H19         -2.9910    77.3670   -28.0060 h1         1 YHB       0.049950
     78 H20         -2.7210    73.6920   -24.4250 ha         1 YHB       0.115000
     79 H21         -2.2010    71.2750   -24.4120 ha         1 YHB       0.118000
     80 H22          0.1540    70.4950   -24.6290 ha         1 YHB       0.114000
     81 H23          1.9870    72.1450   -24.8820 ha         1 YHB       0.114000
     82 H24         -2.7130    75.5990   -25.9970 ha         1 YHB       0.128000
     83 H25         -4.4290    79.2760   -24.4740 h1         1 YHB       0.049950
     84 H26         -5.3680    77.8820   -25.0200 h1         1 YHB       0.049950
     85 H27         -5.0440    80.5740   -26.4630 h1         1 YHB       0.072950
     86 H28         -6.5030    79.9920   -25.6880 h1         1 YHB       0.072950
     87 H29         -8.9890    77.4620   -30.3580 h4         1 YHB       0.019100
     88 H30        -10.6140    76.7820   -28.6280 ha         1 YHB       0.119000
     89 H31        -13.5660    74.4600   -22.9660 hc         1 YHB       0.040478
     90 H32        -14.3840    74.0240   -24.4790 hc         1 YHB       0.040478
     91 H33        -13.3290    72.8570   -23.6620 hc         1 YHB       0.040478
     92 H34        -11.9390    72.4470   -25.6330 hc         1 YHB       0.040478
     93 H35        -12.9500    73.5250   -26.6110 hc         1 YHB       0.040478
     94 H36        -11.1910    73.7540   -26.5590 hc         1 YHB       0.040478
     95 H37        -10.9880    74.9920   -22.9970 hc         1 YHB       0.040478
     96 H38        -10.8110    73.3080   -23.5050 hc         1 YHB       0.040478
     97 H39        -10.0560    74.5920   -24.4530 hc         1 YHB       0.040478
     98 H40        -14.6050    77.8930   -26.5650 h1         1 YHB       0.058700
     99 H41        -12.8940    78.3720   -26.6880 h1         1 YHB       0.058700
    100 H42        -14.8170    80.2770   -26.9180 h1         1 YHB       0.048700
    101 H43        -15.2180    81.0590   -24.3740 hc         1 YHB       0.066200
    102 H44        -16.0460    79.6090   -24.9300 hc         1 YHB       0.066200
    103 H45        -14.9410    80.4820   -21.8500 hn         1 YHB       0.316500
    104 H46        -11.5530    76.1950   -27.1640 hn         1 YHB       0.317500
    105 H47         -0.9000    80.3210   -24.0560 hn         1 YHB       0.492500
    106 H48         -2.2720    80.2880   -25.1020 hn         1 YHB       0.492500
    107 H49          2.5470    74.2150   -25.0410 ho         1 YHB       0.460000
    108 H50        -13.4120    81.7870   -25.9710 ho         1 YHB       0.445000
    109 C24        -10.3010    77.0720   -25.8160 c          1 YHB       0.602700
@<TRIPOS>BOND
     1     1    14 1   
     2     1    43 1   
     3     1    53 2   
     4     2     3 1   
     5     2    13 1   
     6     2    43 1   
     7     2    59 1   
     8     3     4 ar  
     9     3    12 ar  
    10     4     5 ar  
    11     4    60 1   
    12     5     6 ar  
    13     5    61 1   
    14     6     7 1   
    15     6    11 ar  
    16     7     9 2   
    17     7    58 1   
    18     8    44 2   
    19     8    58 1   
    20     8    62 1   
    21     9    10 1   
    22     9    44 1   
    23    10    63 1   
    24    10    64 1   
    25    10    65 1   
    26    11    12 ar  
    27    11    66 1   
    28    12    67 1   
    29    13    68 1   
    30    13    69 1   
    31    13    70 1   
    32    14    42 1   
    33    14    45 1   
    34    14    71 1   
    35    15    16 1   
    36    15    45 1   
    37    15    54 2   
    38    16    36 1   
    39    16    46 1   
    40    16    72 1   
    41    17    18 ar  
    42    17    35 ar  
    43    17   109 1   
    44    18    19 ar  
    45    18    73 1   
    46    19    47 1   
    47    19    52 ar  
    48    20    21 1   
    49    20    47 1   
    50    20    74 1   
    51    20    75 1   
    52    21    48 1   
    53    21    76 1   
    54    21    77 1   
    55    22    23 ar  
    56    22    31 ar  
    57    22    48 1   
    58    23    49 1   
    59    23    50 ar  
    60    24    25 1   
    61    24    31 ar  
    62    24    51 ar  
    63    25    26 ar  
    64    25    30 ar  
    65    26    27 ar  
    66    26    78 1   
    67    27    28 ar  
    68    27    79 1   
    69    28    29 ar  
    70    28    80 1   
    71    29    30 ar  
    72    29    81 1   
    73    30    56 1   
    74    31    82 1   
    75    32    33 1   
    76    32    48 1   
    77    32    83 1   
    78    32    84 1   
    79    33    47 1   
    80    33    85 1   
    81    33    86 1   
    82    34    35 ar  
    83    34    52 ar  
    84    34    87 1   
    85    35    88 1   
    86    36    37 1   
    87    36    38 1   
    88    36    39 1   
    89    37    89 1   
    90    37    90 1   
    91    37    91 1   
    92    38    92 1   
    93    38    93 1   
    94    38    94 1   
    95    39    95 1   
    96    39    96 1   
    97    39    97 1   
    98    40    41 1   
    99    40    45 1   
   100    40    98 1   
   101    40    99 1   
   102    41    42 1   
   103    41    57 1   
   104    41   100 1   
   105    42   101 1   
   106    42   102 1   
   107    43   103 1   
   108    46   104 1   
   109    46   109 1   
   110    49   105 1   
   111    49   106 1   
   112    50    51 ar  
   113    55   109 2   
   114    56   107 1   
   115    57   108 1   
@<TRIPOS>SUBSTRUCTURE
     1 YHB         1 TEMP              0 ****  ****    0 ROOT
