@<TRIPOS>MOLECULE
YHB
  109   115     1     0     0
SMALL
abcg2


@<TRIPOS>ATOM
      1 C02        -14.3100    79.9120   -22.0980 c          1 YHB       0.604100
      2 C04        -15.1380    80.1200   -19.7870 c3         1 YHB       0.165000
      3 C05        -16.5010    80.7460   -20.0190 ca         1 YHB      -0.097300
      4 C06        -16.6790    82.1280   -19.9740 ca         1 YHB      -0.089000
      5 C07        -17.9170    82.6950   -20.2370 ca         1 YHB      -0.100500
      6 C08        -19.0210    81.8930   -20.5550 ca         1 YHB      -0.006000
      7 C09        -20.3260    82.4900   -20.8590 cc         1 YHB      -0.175000
      8 C11        -22.3490    83.8490   -20.9310 cc         1 YHB       0.416300
      9 C13        -21.2120    82.1910   -21.8710 cd         1 YHB       0.297300
     10 C14        -21.0310    81.1510   -22.9330 c3         1 YHB      -0.121400
     11 C15        -18.8440    80.5050   -20.5820 ca         1 YHB      -0.100500
     12 C16        -17.5990    79.9460   -20.3210 ca         1 YHB      -0.089000
     13 C17        -14.5110    80.5260   -18.4570 c3         1 YHB      -0.102100
     14 C18        -13.3250    80.4670   -23.1310 c5         1 YHB       0.045700
     15 C20        -12.3940    78.2650   -23.5360 c          1 YHB       0.629100
     16 C22        -12.1510    77.1270   -24.5470 c3         1 YHB       0.061700
     17 C26         -9.0410    78.3900   -26.3820 ca         1 YHB      -0.070600
     18 C27         -7.7370    78.7420   -26.0930 ca         1 YHB      -0.175000
     19 C28         -6.8270    78.9810   -27.1460 ca         1 YHB       0.608900
     20 C30         -4.5390    79.3120   -27.9900 c6         1 YHB       0.209300
     21 C31         -3.7580    78.0060   -27.9210 c6         1 YHB       0.149300
     22 C33         -2.1790    76.8340   -26.5060 ca         1 YHB       0.189000
     23 C34         -0.9150    76.9960   -27.1530 ca         1 YHB       0.557900
     24 C38         -1.3230    74.7040   -25.8110 cp         1 YHB       0.316500
     25 C39         -1.4720    73.4420   -25.0450 cp         1 YHB      -0.165500
     26 C40         -1.7910    73.4970   -23.6860 ca         1 YHB      -0.065000
     27 C41         -1.9460    72.3470   -22.9240 ca         1 YHB      -0.150000
     28 C42         -1.7890    71.1040   -23.5290 ca         1 YHB      -0.062000
     29 C43         -1.4840    71.0210   -24.8810 ca         1 YHB      -0.208000
     30 C44         -1.3290    72.1790   -25.6420 ca         1 YHB       0.166100
     31 C46         -2.3470    75.6690   -25.8000 ca         1 YHB      -0.128000
     32 C47         -4.1310    77.9060   -25.5230 c6         1 YHB       0.149300
     33 C48         -4.8940    79.2260   -25.6110 c6         1 YHB       0.209300
     34 C50         -8.4880    78.5530   -28.6890 ca         1 YHB       0.381900
     35 C51         -9.4420    78.2950   -27.7210 ca         1 YHB      -0.208000
     36 C52        -12.0140    75.7050   -23.9370 c3         1 YHB      -0.046000
     37 C53        -13.2910    75.3740   -23.1480 c3         1 YHB      -0.088100
     38 C54        -11.9070    74.7090   -25.1040 c3         1 YHB      -0.088100
     39 C55        -10.7740    75.5550   -23.0500 c3         1 YHB      -0.088100
     40 C56        -12.9410    79.8130   -25.4500 c5         1 YHB       0.117000
     41 C57        -13.6240    81.1840   -25.4800 c5         1 YHB       0.157300
     42 C59        -14.0370    81.4900   -24.0310 c5         1 YHB      -0.115400
     43 N03        -14.2130    80.4530   -20.8730 ns         1 YHB      -0.498900
     44 N12        -22.3470    82.9720   -21.8930 nd         1 YHB      -0.638000
     45 N19        -12.8880    79.4170   -24.0450 n          1 YHB      -0.402800
     46 N23        -11.0860    77.4580   -25.4880 ns         1 YHB      -0.502900
     47 N29         -5.5270    79.3680   -26.9160 nh         1 YHB      -0.769300
     48 N32         -3.1310    77.8590   -26.5900 nh         1 YHB      -0.780400
     49 N35         -0.5720    78.1730   -27.7430 nv         1 YHB      -1.077900
     50 N36          0.0030    76.0310   -27.1490 nb         1 YHB      -0.408000
     51 N37         -0.2000    74.8880   -26.4900 nb         1 YHB      -0.261000
     52 N49         -7.2210    78.8760   -28.4280 nb         1 YHB      -0.739000
     53 O01        -15.1720    79.0940   -22.4080 o          1 YHB      -0.605100
     54 O21        -12.2590    78.1250   -22.3250 o          1 YHB      -0.583100
     55 O25         -9.7040    78.5920   -24.0960 o          1 YHB      -0.582100
     56 O45         -1.0770    72.1130   -26.9800 oh         1 YHB      -0.518100
     57 O58        -12.6810    82.1220   -26.0050 oh         1 YHB      -0.660000
     58 S10        -20.9600    83.8050   -19.9190 ss         1 YHB      -0.043400
     59 H1         -15.2690    79.0370   -19.8010 h1         1 YHB       0.076700
     60 H2         -15.8380    82.7740   -19.7520 ha         1 YHB       0.118000
     61 H3         -18.0260    83.7720   -20.2200 ha         1 YHB       0.117500
     62 H4         -23.1420    84.5610   -20.7620 h5         1 YHB       0.053100
     63 H5         -21.6740    81.3820   -23.7820 hc         1 YHB       0.052700
     64 H6         -19.9950    81.1130   -23.2730 hc         1 YHB       0.052700
     65 H7         -21.2970    80.1550   -22.5730 hc         1 YHB       0.052700
     66 H8         -19.6850    79.8610   -20.7990 ha         1 YHB       0.117500
     67 H9         -17.4750    78.8700   -20.3680 ha         1 YHB       0.118000
     68 H10        -15.1930    80.2900   -17.6400 hc         1 YHB       0.046367
     69 H11        -13.5750    79.9890   -18.2990 hc         1 YHB       0.046367
     70 H12        -14.3050    81.5980   -18.4290 hc         1 YHB       0.046367
     71 H13        -12.4670    80.9130   -22.6210 h1         1 YHB       0.071700
     72 H14        -13.0600    77.0940   -25.1560 h1         1 YHB       0.056700
     73 H15         -7.4500    78.8180   -25.0570 ha         1 YHB       0.146000
     74 H16         -5.0370    79.4010   -28.9470 h1         1 YHB       0.072950
     75 H17         -3.8530    80.1540   -27.8640 h1         1 YHB       0.072950
     76 H18         -4.4360    77.1610   -28.1070 h1         1 YHB       0.049950
     77 H19         -2.9920    77.9930   -28.6940 h1         1 YHB       0.049950
     78 H20         -1.9060    74.4690   -23.2220 ha         1 YHB       0.115000
     79 H21         -2.1830    72.4190   -21.8710 ha         1 YHB       0.118000
     80 H22         -1.9060    70.1950   -22.9520 ha         1 YHB       0.114000
     81 H23         -1.3770    70.0560   -25.3630 ha         1 YHB       0.114000
     82 H24         -3.2630    75.4690   -25.2640 ha         1 YHB       0.128000
     83 H25         -3.6210    77.8320   -24.5620 h1         1 YHB       0.049950
     84 H26         -4.8470    77.0750   -25.5990 h1         1 YHB       0.049950
     85 H27         -4.1940    80.0560   -25.4870 h1         1 YHB       0.072950
     86 H28         -5.6230    79.2890   -24.8110 h1         1 YHB       0.072950
     87 H29         -8.7550    78.5010   -29.7390 h4         1 YHB       0.019100
     88 H30        -10.4530    78.0660   -28.0210 ha         1 YHB       0.119000
     89 H31        -13.4250    76.0380   -22.2960 hc         1 YHB       0.040478
     90 H32        -14.1720    75.4510   -23.7900 hc         1 YHB       0.040478
     91 H33        -13.2370    74.3470   -22.7800 hc         1 YHB       0.040478
     92 H34        -11.8980    73.6900   -24.7130 hc         1 YHB       0.040478
     93 H35        -12.7580    74.8030   -25.7850 hc         1 YHB       0.040478
     94 H36        -10.9890    74.8550   -25.6750 hc         1 YHB       0.040478
     95 H37        -10.8160    76.2150   -22.1880 hc         1 YHB       0.040478
     96 H38        -10.7090    74.5230   -22.6970 hc         1 YHB       0.040478
     97 H39         -9.8640    75.7740   -23.6110 hc         1 YHB       0.040478
     98 H40        -13.4790    79.0790   -26.0500 h1         1 YHB       0.058700
     99 H41        -11.9390    79.9250   -25.8620 h1         1 YHB       0.058700
    100 H42        -14.5060    81.1600   -26.1220 h1         1 YHB       0.048700
    101 H43        -13.7650    82.5100   -23.7630 hc         1 YHB       0.066200
    102 H44        -15.1170    81.3900   -23.9290 hc         1 YHB       0.066200
    103 H45        -13.4810    81.1210   -20.6910 hn         1 YHB       0.316500
    104 H46        -11.2130    77.1110   -26.4220 hn         1 YHB       0.317500
    105 H47          0.2230    78.1920   -28.3610 hn         1 YHB       0.492500
    106 H48         -1.2620    78.8940   -27.8470 hn         1 YHB       0.492500
    107 H49         -1.0590    71.1880   -27.2600 ho         1 YHB       0.460000
    108 H50        -13.1270    82.9730   -26.1040 ho         1 YHB       0.445000
    109 C24         -9.9660    78.1510   -25.2140 c          1 YHB       0.602700
@<TRIPOS>BOND
     1     1    14 1   
     2     1    43 1   
     3     1    53 2   
     4     2     3 1   
     5     2    13 1   
     6     2    43 1   
     7     2    59 1   
     8     3     4 ar  
     9     3    12 ar  
    10     4     5 ar  
    11     4    60 1   
    12     5     6 ar  
    13     5    61 1   
    14     6     7 1   
    15     6    11 ar  
    16     7     9 2   
    17     7    58 1   
    18     8    44 2   
    19     8    58 1   
    20     8    62 1   
    21     9    10 1   
    22     9    44 1   
    23    10    63 1   
    24    10    64 1   
    25    10    65 1   
    26    11    12 ar  
    27    11    66 1   
    28    12    67 1   
    29    13    68 1   
    30    13    69 1   
    31    13    70 1   
    32    14    42 1   
    33    14    45 1   
    34    14    71 1   
    35    15    16 1   
    36    15    45 1   
    37    15    54 2   
    38    16    36 1   
    39    16    46 1   
    40    16    72 1   
    41    17    18 ar  
    42    17    35 ar  
    43    17   109 1   
    44    18    19 ar  
    45    18    73 1   
    46    19    47 1   
    47    19    52 ar  
    48    20    21 1   
    49    20    47 1   
    50    20    74 1   
    51    20    75 1   
    52    21    48 1   
    53    21    76 1   
    54    21    77 1   
    55    22    23 ar  
    56    22    31 ar  
    57    22    48 1   
    58    23    49 1   
    59    23    50 ar  
    60    24    25 1   
    61    24    31 ar  
    62    24    51 ar  
    63    25    26 ar  
    64    25    30 ar  
    65    26    27 ar  
    66    26    78 1   
    67    27    28 ar  
    68    27    79 1   
    69    28    29 ar  
    70    28    80 1   
    71    29    30 ar  
    72    29    81 1   
    73    30    56 1   
    74    31    82 1   
    75    32    33 1   
    76    32    48 1   
    77    32    83 1   
    78    32    84 1   
    79    33    47 1   
    80    33    85 1   
    81    33    86 1   
    82    34    35 ar  
    83    34    52 ar  
    84    34    87 1   
    85    35    88 1   
    86    36    37 1   
    87    36    38 1   
    88    36    39 1   
    89    37    89 1   
    90    37    90 1   
    91    37    91 1   
    92    38    92 1   
    93    38    93 1   
    94    38    94 1   
    95    39    95 1   
    96    39    96 1   
    97    39    97 1   
    98    40    41 1   
    99    40    45 1   
   100    40    98 1   
   101    40    99 1   
   102    41    42 1   
   103    41    57 1   
   104    41   100 1   
   105    42   101 1   
   106    42   102 1   
   107    43   103 1   
   108    46   104 1   
   109    46   109 1   
   110    49   105 1   
   111    49   106 1   
   112    50    51 ar  
   113    55   109 2   
   114    56   107 1   
   115    57   108 1   
@<TRIPOS>SUBSTRUCTURE
     1 YHB         1 TEMP              0 ****  ****    0 ROOT
