@<TRIPOS>MOLECULE
YHF
   49    52     1     0     0
SMALL
abcg2


@<TRIPOS>ATOM
      1 C1         -15.7210    17.0090    19.2810 c5         1 YHF       0.141300
      2 C10        -15.3210    14.5730    18.6950 c3         1 YHF       0.227600
      3 C11        -13.0560    11.3310    18.8980 c5         1 YHF       0.235300
      4 C12        -11.5920    11.2380    18.4760 c5         1 YHF      -0.101400
      5 C13        -10.8290    10.9670    19.7830 c5         1 YHF      -0.079400
      6 C14        -11.7970    11.3640    20.9260 c5         1 YHF      -0.079400
      7 C15        -12.9740    12.0550    20.2380 c5         1 YHF      -0.101400
      8 C2         -16.1210    17.6620    20.6070 c5         1 YHF       0.089300
      9 C3         -15.7340    16.5500    21.5940 c5         1 YHF       0.280300
     10 C4         -13.2390    16.0160    21.6730 cc         1 YHF       0.436700
     11 C5         -12.6010    17.3350    23.1930 ca         1 YHF      -0.091600
     12 C6         -13.9650    17.5420    23.0560 ca         1 YHF       0.108500
     13 C7         -13.9950    19.0610    24.6390 ca         1 YHF       0.169900
     14 C8         -11.9510    18.1100    24.1710 ca         1 YHF       0.445900
     15 C9         -16.1090    15.5540    19.5250 c5         1 YHF       0.153300
     16 N1         -14.3620    16.6870    22.0720 na         1 YHF      -0.297300
     17 N2         -12.1670    16.3750    22.3180 nd         1 YHF      -0.573100
     18 N3         -14.7150    18.3950    23.7530 nb         1 YHF      -0.226000
     19 N4         -12.6900    18.9700    24.8820 nb         1 YHF      -0.313000
     20 N5         -10.6410    18.0240    24.4070 nv         1 YHF      -1.070900
     21 O1         -16.3590    17.4940    18.1410 oh         1 YHF      -0.674000
     22 O2         -15.8640    15.3410    20.9150 os         1 YHF      -0.415000
     23 O3         -17.5050    17.8620    20.5980 oh         1 YHF      -0.685000
     24 O4         -15.7210    13.2660    19.0260 os         1 YHF      -0.584400
     25 O5         -15.9010    12.4470    16.6050 o          1 YHF      -0.808500
     26 O6         -13.8180    11.9760    17.8970 os         1 YHF      -0.603400
     27 O7         -15.9940    10.8160    18.6600 o          1 YHF      -0.808500
     28 P1         -15.4590    12.0280    17.9700 p5         1 YHF       1.393800
     29 H1         -14.6270    17.0780    19.1890 h1         1 YHF       0.041700
     30 H2         -14.2470    14.7100    18.8730 h1         1 YHF       0.029200
     31 H3         -15.5070    14.8020    17.6400 h1         1 YHF       0.029200
     32 H4         -13.4440    10.3190    19.0710 h1         1 YHF       0.048700
     33 H7         -10.5480     9.9160    19.8660 hc         1 YHF       0.027700
     34 H8          -9.9030    11.5400    19.8210 hc         1 YHF       0.027700
     35 H9         -12.1440    10.4730    21.4510 hc         1 YHF       0.027700
     36 H10        -11.3230    12.0030    21.6720 hc         1 YHF       0.027700
     37 H11        -12.7490    13.1100    20.0570 hc         1 YHF       0.046950
     38 H12        -13.8960    12.0060    20.8190 hc         1 YHF       0.046950
     39 H13        -15.5720    18.5890    20.8100 h1         1 YHF       0.054700
     40 H14        -16.3750    16.5650    22.4820 h2         1 YHF       0.095700
     41 H15        -13.2670    15.2590    20.9060 h5         1 YHF       0.093800
     42 H16        -14.5330    19.7770    25.2500 h5         1 YHF       0.036100
     43 H17        -17.1800    15.4190    19.3230 h1         1 YHF       0.098700
     44 H18        -10.2250    18.5570    25.1510 hn         1 YHF       0.502500
     45 H19        -10.0720    17.3460    23.9310 hn         1 YHF       0.502500
     46 H20        -15.9560    18.3290    17.8890 ho         1 YHF       0.499000
     47 H21        -17.7590    18.2910    21.4220 ho         1 YHF       0.503000
     48 H5         -11.4190    10.4750    17.7150 hc         1 YHF       0.046950
     49 H6         -11.2900    12.1980    18.0490 hc         1 YHF       0.046950
@<TRIPOS>BOND
     1     1     8 1   
     2     1    15 1   
     3     1    21 1   
     4     1    29 1   
     5     2    15 1   
     6     2    24 1   
     7     2    30 1   
     8     2    31 1   
     9     3     4 1   
    10     3     7 1   
    11     3    26 1   
    12     3    32 1   
    13     4     5 1   
    14     4    48 1   
    15     4    49 1   
    16     5     6 1   
    17     5    33 1   
    18     5    34 1   
    19     6     7 1   
    20     6    35 1   
    21     6    36 1   
    22     7    37 1   
    23     7    38 1   
    24     8     9 1   
    25     8    23 1   
    26     8    39 1   
    27     9    16 1   
    28     9    22 1   
    29     9    40 1   
    30    10    16 1   
    31    10    17 2   
    32    10    41 1   
    33    11    12 ar  
    34    11    14 ar  
    35    11    17 1   
    36    12    16 1   
    37    12    18 ar  
    38    13    18 ar  
    39    13    19 ar  
    40    13    42 1   
    41    14    19 ar  
    42    14    20 1   
    43    15    22 1   
    44    15    43 1   
    45    20    44 1   
    46    20    45 1   
    47    21    46 1   
    48    23    47 1   
    49    24    28 1   
    50    25    28 1   
    51    26    28 1   
    52    27    28 1   
@<TRIPOS>SUBSTRUCTURE
     1 YHF         1 TEMP              0 ****  ****    0 ROOT
