@<TRIPOS>MOLECULE
YHF
   49    52     1     0     0
SMALL
No Charge or Current Charge


@<TRIPOS>ATOM
      1 C1         -15.7370    17.0550    18.6290 c5         1 YHF       0.141300
      2 C10        -15.6200    14.4790    18.2110 c3         1 YHF       0.227600
      3 C11        -13.1160    11.8730    19.8500 c5         1 YHF       0.235300
      4 C12        -11.5760    11.9480    19.7880 c5         1 YHF      -0.101400
      5 C13        -11.2610    11.9650    21.3030 c5         1 YHF      -0.079400
      6 C14        -12.2610    13.0280    21.8480 c5         1 YHF      -0.079400
      7 C15        -13.4380    13.0490    20.8170 c5         1 YHF      -0.101400
      8 C2         -16.0910    17.8650    19.9090 c5         1 YHF       0.089300
      9 C3         -15.5630    16.8700    21.0130 c5         1 YHF       0.280300
     10 C4         -13.1570    17.7410    20.8260 cc         1 YHF       0.436700
     11 C5         -12.3250    16.8760    22.6140 ca         1 YHF      -0.091600
     12 C6         -13.6370    16.4740    22.5960 ca         1 YHF       0.108500
     13 C7         -13.3120    15.3290    24.5510 ca         1 YHF       0.169900
     14 C8         -11.5140    16.4480    23.6860 ca         1 YHF       0.445900
     15 C9         -16.1730    15.6350    19.0890 c5         1 YHF       0.153300
     16 N1         -14.1750    17.0200    21.4650 na         1 YHF      -0.297300
     17 N2         -11.9990    17.6730    21.5120 nd         1 YHF      -0.573100
     18 N3         -14.1630    15.6960    23.5620 nb         1 YHF      -0.226000
     19 N4         -12.0040    15.6680    24.6620 nb         1 YHF      -0.313000
     20 N5         -10.2010    16.7890    23.7970 nv         1 YHF      -1.070900
     21 O1         -16.4700    17.5490    17.5060 oh         1 YHF      -0.674000
     22 O2         -15.7020    15.5410    20.4580 os         1 YHF      -0.415000
     23 O3         -17.5160    18.0980    19.9790 oh         1 YHF      -0.685000
     24 O4         -15.8160    13.2290    18.8870 os         1 YHF      -0.584400
     25 O5         -15.4680    11.8340    16.7760 o          1 YHF      -0.808500
     26 O6         -13.6200    12.1500    18.5260 os         1 YHF      -0.603400
     27 O7         -15.6820    10.6670    18.9350 o          1 YHF      -0.808500
     28 P1         -15.1910    11.8940    18.2410 p5         1 YHF       1.393800
     29 H1         -14.6580    17.0800    18.4230 h1         1 YHF       0.041700
     30 H2         -14.5520    14.6540    18.0270 h1         1 YHF       0.029200
     31 H3         -16.1390    14.4880    17.2440 h1         1 YHF       0.029200
     32 H4         -13.4670    10.8990    20.2230 h1         1 YHF       0.048700
     33 H7         -11.4420    10.9820    21.7550 hc         1 YHF       0.027700
     34 H8         -10.2180    12.2300    21.5110 hc         1 YHF       0.027700
     35 H9         -12.6030    12.7740    22.8570 hc         1 YHF       0.027700
     36 H10        -11.7890    14.0140    21.9110 hc         1 YHF       0.027700
     37 H11        -13.4540    14.0080    20.2880 hc         1 YHF       0.046950
     38 H12        -14.4110    12.9280    21.3050 hc         1 YHF       0.046950
     39 H13        -15.5540    18.8240    19.9390 h1         1 YHF       0.054700
     40 H14        -16.1740    16.9600    21.9200 h2         1 YHF       0.095700
     41 H15        -13.3090    18.2790    19.8970 h5         1 YHF       0.093800
     42 H16        -13.7210    14.6970    25.3370 h5         1 YHF       0.036100
     43 H17        -17.2680    15.5550    19.1020 h1         1 YHF       0.098700
     44 H18         -9.6140    16.2250    24.4040 hn         1 YHF       0.502500
     45 H19         -9.7590    17.1880    22.9720 hn         1 YHF       0.502500
     46 H20        -17.2720    17.9600    17.9140 ho         1 YHF       0.499000
     47 H21        -17.6900    18.6800    20.7570 ho         1 YHF       0.503000
     48 H5         -11.1340    11.0840    19.2800 hc         1 YHF       0.046950
     49 H6         -11.2220    12.8560    19.2840 hc         1 YHF       0.046950
@<TRIPOS>BOND
     1     1     8 1   
     2     1    15 1   
     3     1    21 1   
     4     1    29 1   
     5     2    15 1   
     6     2    24 1   
     7     2    30 1   
     8     2    31 1   
     9     3     4 1   
    10     3     7 1   
    11     3    26 1   
    12     3    32 1   
    13     4     5 1   
    14     4    48 1   
    15     4    49 1   
    16     5     6 1   
    17     5    33 1   
    18     5    34 1   
    19     6     7 1   
    20     6    35 1   
    21     6    36 1   
    22     7    37 1   
    23     7    38 1   
    24     8     9 1   
    25     8    23 1   
    26     8    39 1   
    27     9    16 1   
    28     9    22 1   
    29     9    40 1   
    30    10    16 1   
    31    10    17 2   
    32    10    41 1   
    33    11    12 ar  
    34    11    14 ar  
    35    11    17 1   
    36    12    16 1   
    37    12    18 ar  
    38    13    18 ar  
    39    13    19 ar  
    40    13    42 1   
    41    14    19 ar  
    42    14    20 1   
    43    15    22 1   
    44    15    43 1   
    45    20    44 1   
    46    20    45 1   
    47    21    46 1   
    48    23    47 1   
    49    24    28 1   
    50    25    28 1   
    51    26    28 1   
    52    27    28 1   
@<TRIPOS>SUBSTRUCTURE
     1 YHF         1 TEMP              0 ****  ****    0 ROOT
