@<TRIPOS>MOLECULE
YHG
   79    85     1     0     0
SMALL
No Charge or Current Charge


@<TRIPOS>ATOM
      1 C1         -40.6470    42.5740   141.2260 c3         1 YHG       0.087900
      2 C11        -40.5520    40.1700   141.9820 ca         1 YHG       0.410500
      3 C13        -39.0790    37.8630   145.4470 c6         1 YHG       0.233800
      4 C14        -39.2310    36.7010   146.4670 c6         1 YHG      -0.022100
      5 C15        -38.4030    35.5340   145.9980 cc         1 YHG      -0.135300
      6 C16        -37.9950    35.3670   144.7160 cd         1 YHG      -0.229300
      7 C17        -38.3170    36.3170   143.5870 c6         1 YHG       0.316100
      8 C18        -37.2310    34.1860   144.6680 cd         1 YHG       0.276300
      9 C19        -36.5620    33.5980   143.4570 c3         1 YHG      -0.121400
     10 C22        -38.0130    34.1360   148.1150 c3         1 YHG       0.094600
     11 C23        -39.2150    33.2260   148.5440 c6         1 YHG      -0.071000
     12 C24        -39.1280    31.8030   147.9070 c6         1 YHG      -0.062733
     13 C25        -40.3120    30.9090   148.3860 c6         1 YHG      -0.082400
     14 C26        -41.2540    31.6830   149.3610 c6         1 YHG       0.135400
     15 C28        -40.3820    32.1360   150.5710 c6         1 YHG      -0.082400
     16 C29        -39.2090    33.0470   150.0970 c6         1 YHG      -0.062733
     17 C30        -41.7770    32.9380   148.5950 c6         1 YHG      -0.082400
     18 N2         -40.1130    41.4860   142.0600 na         1 YHG      -0.029100
     19 N3         -39.1010    41.6630   143.0070 nc         1 YHG      -0.525100
     20 C4         -38.9320    40.4360   143.5160 cd         1 YHG       0.365800
     21 C5         -39.8260    39.4890   142.9040 ca         1 YHG      -0.336900
     22 C6         -39.9850    38.1240   143.0950 ca         1 YHG       0.445000
     23 C7         -40.9280    37.4890   142.2870 ca         1 YHG      -0.312000
     24 C8         -41.6540    38.2490   141.3570 ca         1 YHG       0.434300
     25 C9         -42.6900    37.6030   140.4600 c3         1 YHG      -0.150400
     26 N10        -41.4720    39.5780   141.1960 nb         1 YHG      -0.728000
     27 N12        -39.2490    37.3930   144.0350 nh         1 YHG      -0.814400
     28 N20        -37.1360    33.6030   145.8510 nc         1 YHG      -0.516800
     29 N21        -37.8810    34.4350   146.6740 na         1 YHG       0.143800
     30 N27        -42.3420    30.7720   149.7600 ns         1 YHG      -0.495900
     31 C31        -40.5930    33.8440   148.1360 c6         1 YHG      -0.062733
     32 C32        -43.4070    31.0390   150.6090 c          1 YHG       0.609100
     33 O33        -43.5350    32.1310   151.1510 o          1 YHG      -0.613100
     34 C34        -44.4420    29.8740   150.8710 c6         1 YHG       0.030500
     35 C35        -44.2240    28.5680   150.0140 c6         1 YHG       0.132600
     36 O36        -45.4840    27.9490   149.6430 os         1 YHG      -0.452000
     37 C37        -46.4050    27.8050   150.7470 c6         1 YHG       0.118600
     38 C38        -46.8060    29.2060   151.3110 c6         1 YHG       0.120800
     39 N39        -45.8980    30.3040   150.8530 n7         1 YHG      -0.859400
     40 H1         -40.1560    43.5200   141.4850 h1         1 YHG       0.055367
     41 H2         -40.4630    42.3490   140.1680 h1         1 YHG       0.055367
     42 H3         -41.7260    42.6690   141.3940 h1         1 YHG       0.055367
     43 H4         -38.0820    38.3110   145.5680 h1         1 YHG       0.053200
     44 H5         -39.8180    38.6430   145.6880 h1         1 YHG       0.053200
     45 H6         -38.9300    37.0410   147.4660 hc         1 YHG       0.064200
     46 H7         -40.2900    36.4170   146.5310 hc         1 YHG       0.064200
     47 H8         -38.7640    35.7480   142.7580 h1         1 YHG       0.052200
     48 H9         -37.3860    36.7640   143.2080 h1         1 YHG       0.052200
     49 H10        -36.0200    32.6770   143.7010 hc         1 YHG       0.048700
     50 H11        -37.3010    33.3580   142.6840 hc         1 YHG       0.048700
     51 H12        -35.8440    34.3060   143.0290 hc         1 YHG       0.048700
     52 H13        -37.0820    33.6610   148.4480 h1         1 YHG       0.065700
     53 H14        -38.0910    35.0900   148.6500 h1         1 YHG       0.065700
     54 H15        -38.1720    31.3280   148.1670 hc         1 YHG       0.047033
     55 H16        -39.1500    31.8720   146.8110 hc         1 YHG       0.047033
     56 H17        -40.8790    30.5540   147.5140 hc         1 YHG       0.053533
     57 H18        -39.9150    30.0090   148.8780 hc         1 YHG       0.053533
     58 H19        -40.9890    32.6840   151.3030 hc         1 YHG       0.053533
     59 H20        -39.9840    31.2580   151.0990 hc         1 YHG       0.053533
     60 H21        -38.2530    32.6150   150.4250 hc         1 YHG       0.047033
     61 H22        -39.2840    34.0280   150.5890 hc         1 YHG       0.047033
     62 H23        -42.4530    33.5250   149.2300 hc         1 YHG       0.053533
     63 H24        -42.3680    32.6270   147.7230 hc         1 YHG       0.053533
     64 H25        -38.1780    40.2880   144.2790 h4         1 YHG       0.040800
     65 H26        -41.1050    36.4230   142.3860 ha         1 YHG       0.119000
     66 H27        -43.5710    38.2440   140.3430 hc         1 YHG       0.051367
     67 H28        -42.2750    37.4120   139.4640 hc         1 YHG       0.051367
     68 H29        -43.0310    36.6450   140.8710 hc         1 YHG       0.051367
     69 H30        -42.3090    29.8380   149.3780 hn         1 YHG       0.336500
     70 H31        -40.7020    34.8450   148.5750 hc         1 YHG       0.047033
     71 H32        -40.6440    33.9760   147.0460 hc         1 YHG       0.047033
     72 H33        -44.2070    29.5840   151.9070 h1         1 YHG       0.083700
     73 H34        -43.6130    27.8470   150.5780 h1         1 YHG       0.065700
     74 H35        -43.6990    28.7890   149.0750 h1         1 YHG       0.065700
     75 H36        -45.9260    27.2060   151.5360 h1         1 YHG       0.052700
     76 H37        -47.3010    27.2640   150.4090 h1         1 YHG       0.052700
     77 H38        -46.7940    29.1530   152.4100 h1         1 YHG       0.058200
     78 H39        -47.8400    29.4400   151.0150 h1         1 YHG       0.058200
     79 H40        -46.1410    30.5200   149.8760 hn         1 YHG       0.420000
@<TRIPOS>BOND
     1     1    18 1   
     2     1    40 1   
     3     1    41 1   
     4     1    42 1   
     5     2    18 1   
     6     2    21 ar  
     7     2    26 ar  
     8     3     4 1   
     9     3    27 1   
    10     3    43 1   
    11     3    44 1   
    12     4     5 1   
    13     4    45 1   
    14     4    46 1   
    15     5     6 2   
    16     5    29 1   
    17     6     7 1   
    18     6     8 1   
    19     7    27 1   
    20     7    47 1   
    21     7    48 1   
    22     8     9 1   
    23     8    28 2   
    24     9    49 1   
    25     9    50 1   
    26     9    51 1   
    27    10    11 1   
    28    10    29 1   
    29    10    52 1   
    30    10    53 1   
    31    11    12 1   
    32    11    16 1   
    33    11    31 1   
    34    12    13 1   
    35    12    54 1   
    36    12    55 1   
    37    13    14 1   
    38    13    56 1   
    39    13    57 1   
    40    14    15 1   
    41    14    17 1   
    42    14    30 1   
    43    15    16 1   
    44    15    58 1   
    45    15    59 1   
    46    16    60 1   
    47    16    61 1   
    48    17    31 1   
    49    17    62 1   
    50    17    63 1   
    51    18    19 1   
    52    19    20 2   
    53    20    21 1   
    54    20    64 1   
    55    21    22 ar  
    56    22    23 ar  
    57    22    27 1   
    58    23    24 ar  
    59    23    65 1   
    60    24    25 1   
    61    24    26 ar  
    62    25    66 1   
    63    25    67 1   
    64    25    68 1   
    65    28    29 1   
    66    30    32 1   
    67    30    69 1   
    68    31    70 1   
    69    31    71 1   
    70    32    33 2   
    71    32    34 1   
    72    34    35 1   
    73    34    39 1   
    74    34    72 1   
    75    35    36 1   
    76    35    73 1   
    77    35    74 1   
    78    36    37 1   
    79    37    38 1   
    80    37    75 1   
    81    37    76 1   
    82    38    39 1   
    83    38    77 1   
    84    38    78 1   
    85    39    79 1   
@<TRIPOS>SUBSTRUCTURE
     1 YHG         1 TEMP              0 ****  ****    0 ROOT
