@<TRIPOS>MOLECULE
YHG
   79    85     1     0     0
SMALL
abcg2


@<TRIPOS>ATOM
      1 C1         -40.8130    42.9530   141.9880 c3         1 YHG       0.087900
      2 C11        -40.3940    40.5040   142.2020 ca         1 YHG       0.410500
      3 C13        -39.3650    37.6630   145.2690 c6         1 YHG       0.233800
      4 C14        -39.6560    36.5080   146.2240 c6         1 YHG      -0.022100
      5 C15        -38.9010    35.3270   145.7530 cc         1 YHG      -0.135300
      6 C16        -38.6050    35.1270   144.4340 cd         1 YHG      -0.229300
      7 C17        -39.0640    36.0280   143.3470 c6         1 YHG       0.316100
      8 C18        -37.8610    33.9320   144.4040 cd         1 YHG       0.276300
      9 C19        -37.2750    33.2500   143.2170 c3         1 YHG      -0.121400
     10 C22        -38.3830    34.0840   147.8680 c3         1 YHG       0.094600
     11 C23        -39.5220    33.2020   148.3840 c6         1 YHG      -0.071000
     12 C24        -39.4160    31.7600   147.8800 c6         1 YHG      -0.062733
     13 C25        -40.5290    30.8870   148.4990 c6         1 YHG      -0.082400
     14 C26        -41.4160    31.7330   149.4190 c6         1 YHG       0.135400
     15 C28        -40.5600    32.3470   150.5310 c6         1 YHG      -0.082400
     16 C29        -39.4240    33.1860   149.9150 c6         1 YHG      -0.062733
     17 C30        -42.0120    32.8730   148.5890 c6         1 YHG      -0.082400
     18 N2         -40.4390    41.7570   142.6990 na         1 YHG      -0.029100
     19 N3         -40.0950    41.7880   143.9910 nc         1 YHG      -0.525100
     20 C4         -39.8300    40.5570   144.3460 cd         1 YHG       0.365800
     21 C5         -40.0070    39.6560   143.2570 ca         1 YHG      -0.336900
     22 C6         -39.8620    38.2700   142.9560 ca         1 YHG       0.445000
     23 C7         -40.0840    37.9490   141.6080 ca         1 YHG      -0.312000
     24 C8         -40.4740    38.9050   140.6610 ca         1 YHG       0.434300
     25 C9         -40.7130    38.4640   139.2470 c3         1 YHG      -0.150400
     26 N10        -40.6450    40.1890   140.9330 nb         1 YHG      -0.728000
     27 N12        -39.5250    37.3190   143.8630 nh         1 YHG      -0.814400
     28 N20        -37.7200    33.4530   145.6290 nc         1 YHG      -0.516800
     29 N21        -38.3550    34.3060   146.4410 na         1 YHG       0.143800
     30 N27        -42.5340    30.9680   149.9510 ns         1 YHG      -0.495900
     31 C31        -40.8950    33.7540   147.9980 c6         1 YHG      -0.062733
     32 C32        -42.4890    29.9060   150.7620 c          1 YHG       0.609100
     33 O33        -41.4740    29.3850   151.2070 o          1 YHG      -0.613100
     34 C34        -43.8610    29.3760   151.1620 c6         1 YHG       0.030500
     35 C35        -43.8370    27.8490   151.3680 c6         1 YHG       0.132600
     36 O36        -45.1250    27.3000   151.1670 os         1 YHG      -0.452000
     37 C37        -46.1460    28.1410   151.6540 c6         1 YHG       0.118600
     38 C38        -46.2180    29.4210   150.8030 c6         1 YHG       0.120800
     39 N39        -44.9130    29.7650   150.2450 n7         1 YHG      -0.859400
     40 H1         -40.5940    43.8080   142.6200 h1         1 YHG       0.055367
     41 H2         -40.2440    43.0400   141.0640 h1         1 YHG       0.055367
     42 H3         -41.8750    42.9530   141.7460 h1         1 YHG       0.055367
     43 H4         -38.3590    38.0480   145.4680 h1         1 YHG       0.053200
     44 H5         -40.0770    38.4480   145.5050 h1         1 YHG       0.053200
     45 H6         -39.3720    36.8210   147.2300 hc         1 YHG       0.064200
     46 H7         -40.7280    36.2980   146.2460 hc         1 YHG       0.064200
     47 H8         -39.8840    35.5490   142.8010 h1         1 YHG       0.052200
     48 H9         -38.2630    36.1870   142.6150 h1         1 YHG       0.052200
     49 H10        -36.7330    32.3520   143.5080 hc         1 YHG       0.048700
     50 H11        -38.0490    32.9610   142.5040 hc         1 YHG       0.048700
     51 H12        -36.5830    33.9070   142.6880 hc         1 YHG       0.048700
     52 H13        -37.4230    33.6480   148.1490 h1         1 YHG       0.065700
     53 H14        -38.4440    35.0620   148.3520 h1         1 YHG       0.065700
     54 H15        -38.4310    31.3620   148.1370 hc         1 YHG       0.047033
     55 H16        -39.4810    31.7390   146.7910 hc         1 YHG       0.047033
     56 H17        -41.1550    30.4480   147.7190 hc         1 YHG       0.053533
     57 H18        -40.0990    30.0590   149.0620 hc         1 YHG       0.053533
     58 H19        -41.2000    32.9640   151.1650 hc         1 YHG       0.053533
     59 H20        -40.1530    31.5580   151.1620 hc         1 YHG       0.053533
     60 H21        -38.4500    32.7850   150.2070 hc         1 YHG       0.047033
     61 H22        -39.4620    34.2120   150.2880 hc         1 YHG       0.047033
     62 H23        -42.6770    33.4680   149.2220 hc         1 YHG       0.053533
     63 H24        -42.6300    32.4490   147.7930 hc         1 YHG       0.053533
     64 H25        -39.5070    40.3690   145.3570 h4         1 YHG       0.040800
     65 H26        -39.9860    36.9320   141.2600 ha         1 YHG       0.119000
     66 H27        -41.0620    39.2940   138.6370 hc         1 YHG       0.051367
     67 H28        -39.7980    38.0710   138.8020 hc         1 YHG       0.051367
     68 H29        -41.4570    37.6670   139.2040 hc         1 YHG       0.051367
     69 H30        -43.4690    31.2510   149.6850 hn         1 YHG       0.336500
     70 H31        -40.9920    34.7820   148.3580 hc         1 YHG       0.047033
     71 H32        -40.9900    33.7930   146.9100 hc         1 YHG       0.047033
     72 H33        -44.0830    29.8600   152.1220 h1         1 YHG       0.083700
     73 H34        -43.4610    27.6080   152.3700 h1         1 YHG       0.065700
     74 H35        -43.1800    27.3690   150.6400 h1         1 YHG       0.065700
     75 H36        -45.9770    28.3870   152.7110 h1         1 YHG       0.052700
     76 H37        -47.0820    27.5840   151.6010 h1         1 YHG       0.052700
     77 H38        -46.5910    30.2470   151.4150 h1         1 YHG       0.058200
     78 H39        -46.9160    29.2980   149.9740 h1         1 YHG       0.058200
     79 H40        -44.7870    29.2730   149.3670 hn         1 YHG       0.420000
@<TRIPOS>BOND
     1     1    18 1   
     2     1    40 1   
     3     1    41 1   
     4     1    42 1   
     5     2    18 1   
     6     2    21 ar  
     7     2    26 ar  
     8     3     4 1   
     9     3    27 1   
    10     3    43 1   
    11     3    44 1   
    12     4     5 1   
    13     4    45 1   
    14     4    46 1   
    15     5     6 2   
    16     5    29 1   
    17     6     7 1   
    18     6     8 1   
    19     7    27 1   
    20     7    47 1   
    21     7    48 1   
    22     8     9 1   
    23     8    28 2   
    24     9    49 1   
    25     9    50 1   
    26     9    51 1   
    27    10    11 1   
    28    10    29 1   
    29    10    52 1   
    30    10    53 1   
    31    11    12 1   
    32    11    16 1   
    33    11    31 1   
    34    12    13 1   
    35    12    54 1   
    36    12    55 1   
    37    13    14 1   
    38    13    56 1   
    39    13    57 1   
    40    14    15 1   
    41    14    17 1   
    42    14    30 1   
    43    15    16 1   
    44    15    58 1   
    45    15    59 1   
    46    16    60 1   
    47    16    61 1   
    48    17    31 1   
    49    17    62 1   
    50    17    63 1   
    51    18    19 1   
    52    19    20 2   
    53    20    21 1   
    54    20    64 1   
    55    21    22 ar  
    56    22    23 ar  
    57    22    27 1   
    58    23    24 ar  
    59    23    65 1   
    60    24    25 1   
    61    24    26 ar  
    62    25    66 1   
    63    25    67 1   
    64    25    68 1   
    65    28    29 1   
    66    30    32 1   
    67    30    69 1   
    68    31    70 1   
    69    31    71 1   
    70    32    33 2   
    71    32    34 1   
    72    34    35 1   
    73    34    39 1   
    74    34    72 1   
    75    35    36 1   
    76    35    73 1   
    77    35    74 1   
    78    36    37 1   
    79    37    38 1   
    80    37    75 1   
    81    37    76 1   
    82    38    39 1   
    83    38    77 1   
    84    38    78 1   
    85    39    79 1   
@<TRIPOS>SUBSTRUCTURE
     1 YHG         1 TEMP              0 ****  ****    0 ROOT
