@<TRIPOS>MOLECULE
YHI
   62    65     1     0     0
SMALL
No Charge or Current Charge


@<TRIPOS>ATOM
      1 C10         -5.0120   -23.6800   -23.4630 ca         1 YHI      -0.108000
      2 C15        -11.4960   -28.5170   -22.8620 cx         1 YHI      -0.134700
      3 C17        -13.6310   -26.9950   -22.2740 c3         1 YHI      -0.065600
      4 C21         -7.8580   -29.3190   -20.1200 c3         1 YHI       0.105700
      5 C22         -7.4860   -28.5420   -18.8280 c3         1 YHI      -0.069400
      6 C24         -6.2770   -26.5080   -19.9830 c5         1 YHI      -0.088400
      7 C01        -11.9380   -27.8940   -24.1610 cx         1 YHI      -0.126700
      8 C02        -11.3340   -26.4840   -24.2710 c5         1 YHI       0.146000
      9 N03        -10.5870   -26.3220   -23.0040 n          1 YHI      -0.394800
     10 C04         -9.9460   -25.1320   -22.6310 c          1 YHI       0.648100
     11 O05        -10.0040   -24.1880   -23.6210 os         1 YHI      -0.449100
     12 C06         -9.3010   -22.9480   -23.4220 c3         1 YHI       0.228900
     13 C07         -7.7920   -23.1990   -23.4410 ca         1 YHI      -0.117300
     14 C08         -6.9800   -22.7300   -22.3890 ca         1 YHI      -0.089000
     15 C09         -5.5940   -22.9690   -22.4010 ca         1 YHI      -0.113000
     16 C11         -5.8150   -24.1490   -24.5160 ca         1 YHI      -0.113000
     17 C12         -7.2000   -23.9080   -24.5070 ca         1 YHI      -0.089000
     18 O13         -9.4130   -24.9750   -21.5420 o          1 YHI      -0.540000
     19 C14        -10.5830   -27.5180   -22.1180 c5         1 YHI       0.070700
     20 C16        -12.9580   -28.1380   -23.0550 cx         1 YHI      -0.076000
     21 C18        -13.9640   -29.2700   -23.2540 c3         1 YHI      -0.065600
     22 C19         -9.1450   -28.0920   -21.9100 c          1 YHI       0.594100
     23 N20         -9.0880   -28.7690   -20.7080 ns         1 YHI      -0.502900
     24 C23         -7.3670   -26.9970   -18.9870 c5         1 YHI      -0.155700
     25 C25         -6.0840   -25.0380   -19.5230 c5         1 YHI       0.098000
     26 N26         -6.2330   -25.1900   -18.0770 ns         1 YHI      -0.513900
     27 C27         -6.9860   -26.2670   -17.6930 c          1 YHI       0.563000
     28 O28         -7.0850   -26.6320   -16.5330 o          1 YHI      -0.566000
     29 C29         -7.9980   -30.8500   -19.9030 c3         1 YHI       0.149600
     30 O30         -6.7580   -31.4290   -19.4700 oh         1 YHI      -0.656000
     31 O31         -8.1940   -28.0090   -22.6780 o          1 YHI      -0.596100
     32 H1          -3.9400   -23.8670   -23.4700 ha         1 YHI       0.112000
     33 H3         -13.9820   -27.3500   -21.2970 hc         1 YHI       0.041700
     34 H4         -12.9800   -26.1370   -22.0830 hc         1 YHI       0.041700
     35 H5         -14.5030   -26.6170   -22.8200 hc         1 YHI       0.041700
     36 H6          -7.0370   -29.1780   -20.8350 h1         1 YHI       0.094700
     37 H7          -8.2400   -28.7670   -18.0620 hc         1 YHI       0.064700
     38 H8          -6.5380   -28.9360   -18.4410 hc         1 YHI       0.064700
     39 H9          -6.5790   -26.5770   -21.0330 hc         1 YHI       0.064700
     40 H10         -5.3460   -27.0760   -19.8670 hc         1 YHI       0.064700
     41 H11        -11.9940   -28.5170   -25.0510 hc         1 YHI       0.100700
     42 H12        -10.6520   -26.4000   -25.1270 h1         1 YHI       0.061700
     43 H13        -12.1030   -25.7080   -24.3850 h1         1 YHI       0.061700
     44 H14         -9.5470   -22.2440   -24.2280 h1         1 YHI       0.066200
     45 H15         -9.6000   -22.4770   -22.4760 h1         1 YHI       0.066200
     46 H16         -7.4210   -22.1820   -21.5590 ha         1 YHI       0.117000
     47 H17         -4.9730   -22.6040   -21.5860 ha         1 YHI       0.113500
     48 H18         -5.3650   -24.6990   -25.3390 ha         1 YHI       0.113500
     49 H19         -7.8150   -24.2770   -25.3250 ha         1 YHI       0.117000
     50 H20        -10.9850   -27.2560   -21.1300 h1         1 YHI       0.083700
     51 H21        -14.3140   -29.6610   -22.2910 hc         1 YHI       0.041700
     52 H22        -14.8400   -28.9250   -23.8170 hc         1 YHI       0.041700
     53 H23        -13.5260   -30.1090   -23.8090 hc         1 YHI       0.041700
     54 H24         -9.9400   -28.8090   -20.1610 hn         1 YHI       0.313500
     55 H25         -8.3290   -26.5800   -19.3070 hc         1 YHI       0.089700
     56 H26         -5.1030   -24.6400   -19.8130 h1         1 YHI       0.046200
     57 H27         -8.7850   -31.0390   -19.1600 h1         1 YHI       0.021200
     58 H28         -8.3150   -31.3130   -20.8470 h1         1 YHI       0.021200
     59 H29         -6.9140   -32.3930   -19.3580 ho         1 YHI       0.447000
     60 H30         -6.8630   -24.3830   -19.9370 h1         1 YHI       0.046200
     61 H31         -5.8020   -24.6120   -17.3660 hn         1 YHI       0.321500
     62 H2         -11.2490   -29.5770   -22.8460 hc         1 YHI       0.100700
@<TRIPOS>BOND
     1     1    15 ar  
     2     1    16 ar  
     3     1    32 1   
     4     2     7 1   
     5     2    19 1   
     6     2    20 1   
     7     2    62 1   
     8     3    20 1   
     9     3    33 1   
    10     3    34 1   
    11     3    35 1   
    12     4     5 1   
    13     4    23 1   
    14     4    29 1   
    15     4    36 1   
    16     5    24 1   
    17     5    37 1   
    18     5    38 1   
    19     6    24 1   
    20     6    25 1   
    21     6    39 1   
    22     6    40 1   
    23     7     8 1   
    24     7    20 1   
    25     7    41 1   
    26     8     9 1   
    27     8    42 1   
    28     8    43 1   
    29     9    10 1   
    30     9    19 1   
    31    10    11 1   
    32    10    18 2   
    33    11    12 1   
    34    12    13 1   
    35    12    44 1   
    36    12    45 1   
    37    13    14 ar  
    38    13    17 ar  
    39    14    15 ar  
    40    14    46 1   
    41    15    47 1   
    42    16    17 ar  
    43    16    48 1   
    44    17    49 1   
    45    19    22 1   
    46    19    50 1   
    47    20    21 1   
    48    21    51 1   
    49    21    52 1   
    50    21    53 1   
    51    22    23 1   
    52    22    31 2   
    53    23    54 1   
    54    24    27 1   
    55    24    55 1   
    56    25    26 1   
    57    25    56 1   
    58    25    60 1   
    59    26    27 1   
    60    26    61 1   
    61    27    28 2   
    62    29    30 1   
    63    29    57 1   
    64    29    58 1   
    65    30    59 1   
@<TRIPOS>SUBSTRUCTURE
     1 YHI         1 TEMP              0 ****  ****    0 ROOT
