@<TRIPOS>MOLECULE
YHI
   62    65     1     0     0
SMALL
bcc


@<TRIPOS>ATOM
      1 C10         -5.1100   -23.6860   -23.2060 ca         1 YHI      -0.126000
      2 C15        -11.6080   -28.4850   -22.7520 cx         1 YHI      -0.134700
      3 C17        -13.8050   -27.0330   -22.5670 c3         1 YHI      -0.065600
      4 C21         -7.9070   -29.1270   -20.1770 c3         1 YHI       0.105700
      5 C22         -7.3680   -28.4350   -18.9270 c3         1 YHI      -0.069400
      6 C24         -6.1620   -26.5310   -20.1910 c5         1 YHI      -0.088400
      7 C01        -11.8770   -27.9370   -24.1250 cx         1 YHI      -0.126700
      8 C02        -11.2600   -26.5650   -24.2140 c5         1 YHI       0.146000
      9 N03        -10.8000   -26.2950   -22.8550 n          1 YHI      -0.461800
     10 C04        -10.1500   -25.1850   -22.4640 c          1 YHI       0.764100
     11 O05        -10.1250   -24.2620   -23.4330 os         1 YHI      -0.425900
     12 C06         -9.3660   -23.0850   -23.1850 c3         1 YHI       0.205700
     13 C07         -7.8820   -23.3320   -23.1820 ca         1 YHI      -0.117300
     14 C08         -7.0610   -22.5480   -22.3780 ca         1 YHI      -0.107000
     15 C09         -5.6830   -22.7160   -22.3940 ca         1 YHI      -0.131000
     16 C11         -5.9240   -24.4750   -24.0090 ca         1 YHI      -0.131000
     17 C12         -7.3010   -24.2950   -24.0030 ca         1 YHI      -0.107000
     18 O13         -9.6560   -25.0310   -21.3650 o          1 YHI      -0.589000
     19 C14        -10.8100   -27.4500   -21.9850 c5         1 YHI       0.070700
     20 C16        -13.0160   -28.1700   -23.1720 cx         1 YHI      -0.076000
     21 C18        -13.8730   -29.3790   -23.4740 c3         1 YHI      -0.065600
     22 C19         -9.3870   -27.9730   -21.7810 c          1 YHI       0.661100
     23 N20         -9.1650   -28.5370   -20.5850 ns         1 YHI      -0.569900
     24 C23         -7.1650   -26.9400   -19.1120 c5         1 YHI      -0.155700
     25 C25         -5.6190   -25.1920   -19.6910 c5         1 YHI       0.098000
     26 N26         -5.7450   -25.3280   -18.2550 ns         1 YHI      -0.580900
     27 C27         -6.6270   -26.2630   -17.8600 c          1 YHI       0.705500
     28 O28         -6.9440   -26.5140   -16.7090 o          1 YHI      -0.641500
     29 C29         -8.1130   -30.6250   -19.9740 c3         1 YHI       0.126400
     30 O30         -6.8750   -31.2130   -19.6590 oh         1 YHI      -0.593800
     31 O31         -8.5630   -27.9060   -22.6780 o          1 YHI      -0.596100
     32 H1          -4.0370   -23.8270   -23.2130 ha         1 YHI       0.130000
     33 H3         -14.2790   -27.3560   -21.6380 hc         1 YHI       0.041700
     34 H4         -13.2100   -26.1490   -22.3410 hc         1 YHI       0.041700
     35 H5         -14.6010   -26.7250   -23.2480 hc         1 YHI       0.041700
     36 H6          -7.2070   -28.9840   -21.0020 h1         1 YHI       0.094700
     37 H7          -8.0580   -28.6110   -18.0950 hc         1 YHI       0.064700
     38 H8          -6.4190   -28.9000   -18.6540 hc         1 YHI       0.064700
     39 H9          -6.6030   -26.4510   -21.1820 hc         1 YHI       0.064700
     40 H10         -5.3530   -27.2640   -20.2430 hc         1 YHI       0.064700
     41 H11        -11.7990   -28.5690   -25.0020 hc         1 YHI       0.100700
     42 H12        -10.4250   -26.5730   -24.9200 h1         1 YHI       0.061700
     43 H13        -11.9710   -25.8050   -24.5420 h1         1 YHI       0.061700
     44 H14         -9.6340   -22.4140   -24.0030 h1         1 YHI       0.066200
     45 H15         -9.6780   -22.6070   -22.2540 h1         1 YHI       0.066200
     46 H16         -7.5020   -21.8020   -21.7260 ha         1 YHI       0.135000
     47 H17         -5.0580   -22.1000   -21.7610 ha         1 YHI       0.131500
     48 H18         -5.4870   -25.2330   -24.6460 ha         1 YHI       0.131500
     49 H19         -7.9180   -24.9130   -24.6430 ha         1 YHI       0.135000
     50 H20        -11.2740   -27.2040   -21.0240 h1         1 YHI       0.083700
     51 H21        -14.3400   -29.7610   -22.5640 hc         1 YHI       0.041700
     52 H22        -14.6700   -29.1230   -24.1750 hc         1 YHI       0.041700
     53 H23        -13.2910   -30.1890   -23.9150 hc         1 YHI       0.041700
     54 H24         -9.9020   -28.5010   -19.8960 hn         1 YHI       0.313500
     55 H25         -8.1310   -26.4630   -19.3240 hc         1 YHI       0.089700
     56 H26         -4.5830   -25.0210   -19.9820 h1         1 YHI       0.046200
     57 H27         -8.8530   -30.7760   -19.1760 h1         1 YHI       0.021200
     58 H28         -8.5410   -31.0440   -20.8940 h1         1 YHI       0.021200
     59 H29         -7.0190   -32.1450   -19.4730 ho         1 YHI       0.408000
     60 H30         -6.2130   -24.3530   -20.0650 h1         1 YHI       0.046200
     61 H31         -5.3460   -24.6650   -17.6090 hn         1 YHI       0.321500
     62 H2         -11.3400   -29.5250   -22.5990 hc         1 YHI       0.100700
@<TRIPOS>BOND
     1     1    15 ar  
     2     1    16 ar  
     3     1    32 1   
     4     2     7 1   
     5     2    19 1   
     6     2    20 1   
     7     2    62 1   
     8     3    20 1   
     9     3    33 1   
    10     3    34 1   
    11     3    35 1   
    12     4     5 1   
    13     4    23 1   
    14     4    29 1   
    15     4    36 1   
    16     5    24 1   
    17     5    37 1   
    18     5    38 1   
    19     6    24 1   
    20     6    25 1   
    21     6    39 1   
    22     6    40 1   
    23     7     8 1   
    24     7    20 1   
    25     7    41 1   
    26     8     9 1   
    27     8    42 1   
    28     8    43 1   
    29     9    10 1   
    30     9    19 1   
    31    10    11 1   
    32    10    18 2   
    33    11    12 1   
    34    12    13 1   
    35    12    44 1   
    36    12    45 1   
    37    13    14 ar  
    38    13    17 ar  
    39    14    15 ar  
    40    14    46 1   
    41    15    47 1   
    42    16    17 ar  
    43    16    48 1   
    44    17    49 1   
    45    19    22 1   
    46    19    50 1   
    47    20    21 1   
    48    21    51 1   
    49    21    52 1   
    50    21    53 1   
    51    22    23 1   
    52    22    31 2   
    53    23    54 1   
    54    24    27 1   
    55    24    55 1   
    56    25    26 1   
    57    25    56 1   
    58    25    60 1   
    59    26    27 1   
    60    26    61 1   
    61    27    28 2   
    62    29    30 1   
    63    29    57 1   
    64    29    58 1   
    65    30    59 1   
@<TRIPOS>SUBSTRUCTURE
     1 YHI         1 TEMP              0 ****  ****    0 ROOT
