@<TRIPOS>MOLECULE
YHJ
   62    65     1     0     0
SMALL
No Charge or Current Charge


@<TRIPOS>ATOM
      1 C10        -22.1180     5.6160    14.6240 ca         1 YHJ      -0.089500
      2 C13        -20.4080    -0.5720    17.0730 c5         1 YHJ      -0.082700
      3 C15        -18.0490    -0.8160    17.8020 c5         1 YHJ      -0.080400
      4 C17        -19.5960    -1.3980    16.0270 c5         1 YHJ      -0.071700
      5 C21        -18.4420    -2.2290    11.7100 c3         1 YHJ       0.105700
      6 C22        -17.0930    -1.9030    11.0160 c3         1 YHJ      -0.069400
      7 C24        -17.7020     0.5650    10.3440 c5         1 YHJ      -0.089400
      8 C02        -19.2780     2.1240    14.7510 c          1 YHJ       0.653100
      9 O03        -20.0620     3.1600    15.1750 os         1 YHJ      -0.448100
     10 C04        -19.8630     4.4410    14.5590 c3         1 YHJ       0.228900
     11 C05        -20.8390     5.4290    15.1840 ca         1 YHJ      -0.097300
     12 C06        -20.4720     6.1600    16.3310 ca         1 YHJ      -0.089500
     13 C07        -21.3740     7.0710    16.9090 ca         1 YHJ      -0.113500
     14 C08        -22.6470     7.2560    16.3450 ca         1 YHJ      -0.101000
     15 C09        -23.0190     6.5270    15.2020 ca         1 YHJ      -0.113500
     16 N11        -19.5700     0.9300    15.4310 n          1 YHJ      -0.385800
     17 C12        -20.6900     0.7930    16.3780 c5         1 YHJ       0.123000
     18 C14        -19.4430    -0.3440    18.2950 c5         1 YHJ      -0.072400
     19 C16        -18.4340    -2.0010    16.8750 c5         1 YHJ      -0.076400
     20 C18        -18.9810    -0.3650    15.0070 c5         1 YHJ       0.041700
     21 C19        -19.3850    -0.7940    13.5610 c          1 YHJ       0.593100
     22 N20        -18.4520    -1.6890    13.0760 ns         1 YHJ      -0.504900
     23 C23        -16.6910    -0.3990    11.0260 c5         1 YHJ      -0.155700
     24 C25        -16.8060     1.8040    10.0730 c5         1 YHJ       0.099000
     25 N26        -15.5420     1.1510     9.7400 ns         1 YHJ      -0.514900
     26 C27        -15.3860    -0.0980    10.2770 c          1 YHJ       0.564000
     27 O28        -14.4690    -0.8450     9.9760 o          1 YHJ      -0.565000
     28 C29        -18.7860    -3.7430    11.7210 c3         1 YHJ       0.150600
     29 O30        -18.9230    -4.2530    10.3860 oh         1 YHJ      -0.656000
     30 O31        -20.3500    -0.4090    12.9120 o          1 YHJ      -0.595100
     31 H1         -22.4150     5.0530    13.7410 ha         1 YHJ       0.115000
     32 H3         -17.5120    -0.0200    17.2750 hc         1 YHJ       0.047700
     33 H4         -17.4060    -1.1340    18.6320 hc         1 YHJ       0.047700
     34 H5         -20.2040    -2.1690    15.5370 hc         1 YHJ       0.074700
     35 H7         -19.2340    -1.7300    11.1350 h1         1 YHJ       0.093700
     36 H8         -16.3030    -2.4910    11.4980 hc         1 YHJ       0.065200
     37 H9         -17.1400    -2.2550     9.9770 hc         1 YHJ       0.065200
     38 H10        -18.0800     0.1470     9.4030 hc         1 YHJ       0.064700
     39 H11        -18.5680     0.8030    10.9720 hc         1 YHJ       0.064700
     40 H12        -18.8340     4.7920    14.7140 h1         1 YHJ       0.057700
     41 H13        -20.0400     4.3840    13.4760 h1         1 YHJ       0.057700
     42 H14        -19.4890     6.0210    16.7770 ha         1 YHJ       0.115000
     43 H15        -21.0860     7.6330    17.7950 ha         1 YHJ       0.114000
     44 H16        -23.3450     7.9600    16.7920 ha         1 YHJ       0.113000
     45 H17        -24.0060     6.6670    14.7650 ha         1 YHJ       0.114000
     46 H18        -21.6400     0.7610    15.8270 h1         1 YHJ       0.062200
     47 H19        -20.7460     1.6250    17.0920 h1         1 YHJ       0.062200
     48 H20        -19.4210     0.6910    18.6560 hc         1 YHJ       0.046700
     49 H21        -19.7670    -0.9570    19.1440 hc         1 YHJ       0.046700
     50 H22        -17.5930    -2.3490    16.2650 hc         1 YHJ       0.048700
     51 H23        -18.7810    -2.8620    17.4590 hc         1 YHJ       0.048700
     52 H25        -17.8850    -0.3160    15.0520 h1         1 YHJ       0.075700
     53 H26        -17.6970    -1.9480    13.6990 hn         1 YHJ       0.311500
     54 H27        -16.5440    -0.0590    12.0580 hc         1 YHJ       0.085700
     55 H28        -17.1960     2.4240     9.2550 h1         1 YHJ       0.045700
     56 H29        -16.7070     2.4320    10.9690 h1         1 YHJ       0.045700
     57 H30        -14.8230     1.5160     9.1260 hn         1 YHJ       0.323500
     58 H31        -17.9970    -4.2870    12.2570 h1         1 YHJ       0.021700
     59 H32        -19.7230    -3.8880    12.2730 h1         1 YHJ       0.021700
     60 H33        -19.1440    -5.2080    10.4650 ho         1 YHJ       0.447000
     61 H2         -21.3340    -1.0680    17.3860 hc         1 YHJ       0.067700
     62 O01        -18.4150     2.2140    13.8900 o          1 YHJ      -0.556000
@<TRIPOS>BOND
     1     1    11 ar  
     2     1    15 ar  
     3     1    31 1   
     4     2     4 1   
     5     2    17 1   
     6     2    18 1   
     7     2    61 1   
     8     3    18 1   
     9     3    19 1   
    10     3    32 1   
    11     3    33 1   
    12     4    19 1   
    13     4    20 1   
    14     4    34 1   
    15     5     6 1   
    16     5    22 1   
    17     5    28 1   
    18     5    35 1   
    19     6    23 1   
    20     6    36 1   
    21     6    37 1   
    22     7    23 1   
    23     7    24 1   
    24     7    38 1   
    25     7    39 1   
    26     8     9 1   
    27     8    16 1   
    28     8    62 2   
    29     9    10 1   
    30    10    11 1   
    31    10    40 1   
    32    10    41 1   
    33    11    12 ar  
    34    12    13 ar  
    35    12    42 1   
    36    13    14 ar  
    37    13    43 1   
    38    14    15 ar  
    39    14    44 1   
    40    15    45 1   
    41    16    17 1   
    42    16    20 1   
    43    17    46 1   
    44    17    47 1   
    45    18    48 1   
    46    18    49 1   
    47    19    50 1   
    48    19    51 1   
    49    20    21 1   
    50    20    52 1   
    51    21    22 1   
    52    21    30 2   
    53    22    53 1   
    54    23    26 1   
    55    23    54 1   
    56    24    25 1   
    57    24    55 1   
    58    24    56 1   
    59    25    26 1   
    60    25    57 1   
    61    26    27 2   
    62    28    29 1   
    63    28    58 1   
    64    28    59 1   
    65    29    60 1   
@<TRIPOS>SUBSTRUCTURE
     1 YHJ         1 TEMP              0 ****  ****    0 ROOT
