@<TRIPOS>MOLECULE
YHJ
   62    65     1     0     0
SMALL
bcc


@<TRIPOS>ATOM
      1 C10        -21.5060     6.1430    14.3300 ca         1 YHJ      -0.107500
      2 C13        -20.4840    -0.5540    17.0680 c5         1 YHJ      -0.082700
      3 C15        -18.2190    -0.9080    17.9910 c5         1 YHJ      -0.080400
      4 C17        -19.6240    -1.4190    16.1230 c5         1 YHJ      -0.071700
      5 C21        -18.2360    -2.1990    11.8430 c3         1 YHJ       0.105700
      6 C22        -17.0150    -1.6930    11.0740 c3         1 YHJ      -0.069400
      7 C24        -18.1140     0.5070    10.2840 c5         1 YHJ      -0.089400
      8 C02        -19.4330     1.9150    14.6270 c          1 YHJ       0.769100
      9 O03        -20.2300     2.9470    14.9170 os         1 YHJ      -0.424900
     10 C04        -19.9190     4.2010    14.3070 c3         1 YHJ       0.205700
     11 C05        -20.6860     5.2680    15.0310 ca         1 YHJ      -0.097300
     12 C06        -20.5570     5.4200    16.4110 ca         1 YHJ      -0.107500
     13 C07        -21.2400     6.4280    17.0730 ca         1 YHJ      -0.131500
     14 C08        -22.0560     7.3030    16.3640 ca         1 YHJ      -0.119000
     15 C09        -22.1850     7.1610    14.9910 ca         1 YHJ      -0.131500
     16 N11        -19.7390     0.8230    15.3490 n          1 YHJ      -0.452800
     17 C12        -20.8730     0.6620    16.2440 c5         1 YHJ       0.123000
     18 C14        -19.5760    -0.2560    18.2860 c5         1 YHJ      -0.072400
     19 C16        -18.5510    -2.0340    17.0140 c5         1 YHJ      -0.076400
     20 C18        -19.0400    -0.4140    15.0980 c5         1 YHJ       0.041700
     21 C19        -19.2760    -0.9060    13.6760 c          1 YHJ       0.660100
     22 N20        -18.2640    -1.6310    13.1750 ns         1 YHJ      -0.571900
     23 C23        -16.9510    -0.1750    11.0050 c5         1 YHJ      -0.155700
     24 C25        -17.4990     1.8050     9.7580 c5         1 YHJ       0.099000
     25 N26        -16.1140     1.4290     9.5670 ns         1 YHJ      -0.581900
     26 C27        -15.7310     0.3420    10.2590 c          1 YHJ       0.706500
     27 O28        -14.6060    -0.1280    10.2960 o          1 YHJ      -0.640500
     28 C29        -18.2770    -3.7190    11.9570 c3         1 YHJ       0.127400
     29 O30        -18.3220    -4.2700    10.6630 oh         1 YHJ      -0.593800
     30 O31        -20.3230    -0.6840    13.0900 o          1 YHJ      -0.595100
     31 H1         -21.6170     6.0320    13.2570 ha         1 YHJ       0.133000
     32 H3         -17.5440    -0.1890    17.5200 hc         1 YHJ       0.047700
     33 H4         -17.7180    -1.2640    18.8920 hc         1 YHJ       0.047700
     34 H5         -20.2240    -2.1750    15.6140 hc         1 YHJ       0.074700
     35 H7         -19.1470    -1.8680    11.3390 h1         1 YHJ       0.093700
     36 H8         -16.1070    -2.0770    11.5500 hc         1 YHJ       0.065200
     37 H9         -17.0410    -2.1030    10.0630 hc         1 YHJ       0.065200
     38 H10        -18.4440    -0.1120     9.4450 hc         1 YHJ       0.064700
     39 H11        -18.9750     0.6880    10.9240 hc         1 YHJ       0.064700
     40 H12        -18.8460     4.3950    14.3760 h1         1 YHJ       0.057700
     41 H13        -20.1860     4.1840    13.2480 h1         1 YHJ       0.057700
     42 H14        -19.9180     4.7500    16.9730 ha         1 YHJ       0.133000
     43 H15        -21.1340     6.5350    18.1450 ha         1 YHJ       0.132000
     44 H16        -22.5860     8.0910    16.8820 ha         1 YHJ       0.131000
     45 H17        -22.8190     7.8370    14.4310 ha         1 YHJ       0.132000
     46 H18        -21.7920     0.4790    15.6790 h1         1 YHJ       0.062200
     47 H19        -21.0270     1.5480    16.8590 h1         1 YHJ       0.062200
     48 H20        -19.4820     0.8150    18.4710 hc         1 YHJ       0.046700
     49 H21        -20.0170    -0.6910    19.1850 hc         1 YHJ       0.046700
     50 H22        -17.6870    -2.3950    16.4520 hc         1 YHJ       0.048700
     51 H23        -18.9700    -2.8900    17.5500 hc         1 YHJ       0.048700
     52 H25        -17.9660    -0.2760    15.2630 h1         1 YHJ       0.075700
     53 H26        -17.4260    -1.7220    13.7320 hn         1 YHJ       0.311500
     54 H27        -16.8740     0.2310    12.0210 hc         1 YHJ       0.085700
     55 H28        -17.9500     2.1360     8.8230 h1         1 YHJ       0.045700
     56 H29        -17.5940     2.6180    10.4850 h1         1 YHJ       0.045700
     57 H30        -15.4500     2.0200     9.0900 hn         1 YHJ       0.323500
     58 H31        -17.3920    -4.0570    12.5150 h1         1 YHJ       0.021700
     59 H32        -19.1580    -3.9980    12.5490 h1         1 YHJ       0.021700
     60 H33        -18.3060    -5.2280    10.7410 ho         1 YHJ       0.408000
     61 H2         -21.3780    -1.0920    17.3850 hc         1 YHJ       0.067700
     62 O01        -18.5280     1.9650    13.8160 o          1 YHJ      -0.605000
@<TRIPOS>BOND
     1     1    11 ar  
     2     1    15 ar  
     3     1    31 1   
     4     2     4 1   
     5     2    17 1   
     6     2    18 1   
     7     2    61 1   
     8     3    18 1   
     9     3    19 1   
    10     3    32 1   
    11     3    33 1   
    12     4    19 1   
    13     4    20 1   
    14     4    34 1   
    15     5     6 1   
    16     5    22 1   
    17     5    28 1   
    18     5    35 1   
    19     6    23 1   
    20     6    36 1   
    21     6    37 1   
    22     7    23 1   
    23     7    24 1   
    24     7    38 1   
    25     7    39 1   
    26     8     9 1   
    27     8    16 1   
    28     8    62 2   
    29     9    10 1   
    30    10    11 1   
    31    10    40 1   
    32    10    41 1   
    33    11    12 ar  
    34    12    13 ar  
    35    12    42 1   
    36    13    14 ar  
    37    13    43 1   
    38    14    15 ar  
    39    14    44 1   
    40    15    45 1   
    41    16    17 1   
    42    16    20 1   
    43    17    46 1   
    44    17    47 1   
    45    18    48 1   
    46    18    49 1   
    47    19    50 1   
    48    19    51 1   
    49    20    21 1   
    50    20    52 1   
    51    21    22 1   
    52    21    30 2   
    53    22    53 1   
    54    23    26 1   
    55    23    54 1   
    56    24    25 1   
    57    24    55 1   
    58    24    56 1   
    59    25    26 1   
    60    25    57 1   
    61    26    27 2   
    62    28    29 1   
    63    28    58 1   
    64    28    59 1   
    65    29    60 1   
@<TRIPOS>SUBSTRUCTURE
     1 YHJ         1 TEMP              0 ****  ****    0 ROOT
