@<TRIPOS>MOLECULE
YHK
   43    46     1     0     0
SMALL
No Charge or Current Charge


@<TRIPOS>ATOM
      1 C1         -14.8080    24.2860     8.7520 c5         1 YHK       0.085300
      2 C10        -13.2380    23.7140     6.7380 c3         1 YHK       0.235600
      3 C11        -14.3840    22.6560     3.1220 cx         1 YHK       0.205300
      4 C12        -14.7190    24.1050     2.8230 cx         1 YHK      -0.173400
      5 C13        -15.5880    23.3080     3.7610 cx         1 YHK      -0.173400
      6 C2         -15.8070    25.4600     8.9560 c5         1 YHK       0.093300
      7 C3         -16.1980    25.7500     7.4600 c5         1 YHK       0.315300
      8 C4         -17.9660    23.8870     7.4440 cc         1 YHK       0.434700
      9 C5         -18.8380    24.2410     5.5080 ca         1 YHK      -0.092600
     10 C6         -17.8750    25.2080     5.6510 ca         1 YHK       0.112500
     11 C7         -18.3870    26.0240     3.5750 ca         1 YHK       0.166900
     12 C8         -19.5830    24.2180     4.3100 ca         1 YHK       0.445900
     13 C9         -14.0180    24.8110     7.5150 c5         1 YHK       0.153300
     14 N1         -17.3100    24.9880     6.8760 na         1 YHK      -0.302300
     15 N2         -18.9160    23.4010     6.6220 nd         1 YHK      -0.568100
     16 N3         -17.6280    26.1240     4.6930 nb         1 YHK      -0.214000
     17 N4         -19.3580    25.1100     3.3330 nb         1 YHK      -0.315000
     18 N5         -20.5560    23.2990     4.0660 nv         1 YHK      -1.073900
     19 O1         -13.9850    24.0900     9.9150 oh         1 YHK      -0.703000
     20 O2         -15.0120    25.4600     6.6790 os         1 YHK      -0.419000
     21 O3         -15.1400    26.5580     9.6000 oh         1 YHK      -0.705000
     22 O4         -12.8170    24.2310     5.4680 os         1 YHK      -0.580400
     23 O5         -11.0210    22.4390     5.1380 o          1 YHK      -0.808000
     24 O6         -13.3060    22.3160     3.9730 os         1 YHK      -0.576400
     25 O7         -11.4830    23.9970     3.2870 o          1 YHK      -0.808000
     26 P1         -12.0650    23.2460     4.4400 p5         1 YHK       1.393800
     27 H1         -15.3380    23.3570     8.4940 h1         1 YHK       0.055700
     28 H2         -13.8920    22.8430     6.6000 h1         1 YHK       0.026200
     29 H3         -12.3750    23.4000     7.3400 h1         1 YHK       0.026200
     30 H4         -14.5640    21.9260     2.3300 h1         1 YHK       0.069700
     31 H5         -15.1190    24.3300     1.8380 hc         1 YHK       0.065700
     32 H6         -14.1290    24.9040     3.2590 hc         1 YHK       0.065700
     33 H7         -16.5700    23.0060     3.4080 hc         1 YHK       0.065700
     34 H8         -15.5370    23.5360     4.8200 hc         1 YHK       0.065700
     35 H9         -16.6780    25.1540     9.5510 h1         1 YHK       0.061700
     36 H10        -16.4760    26.8060     7.3450 h2         1 YHK       0.116700
     37 H11        -17.7170    23.4920     8.4220 h5         1 YHK       0.097800
     38 H12        -18.1960    26.7540     2.7910 h5         1 YHK       0.036100
     39 H13        -13.2940    25.5770     7.8250 h1         1 YHK       0.087700
     40 H14        -20.8380    23.1490     3.1020 hn         1 YHK       0.502500
     41 H15        -20.5930    22.4930     4.6850 hn         1 YHK       0.502500
     42 H16        -14.3880    23.3650    10.4520 ho         1 YHK       0.505000
     43 H17        -14.4120    26.1250    10.1130 ho         1 YHK       0.520000
@<TRIPOS>BOND
     1     1     6 1   
     2     1    13 1   
     3     1    19 1   
     4     1    27 1   
     5     2    13 1   
     6     2    22 1   
     7     2    28 1   
     8     2    29 1   
     9     3     4 1   
    10     3     5 1   
    11     3    24 1   
    12     3    30 1   
    13     4     5 1   
    14     4    31 1   
    15     4    32 1   
    16     5    33 1   
    17     5    34 1   
    18     6     7 1   
    19     6    21 1   
    20     6    35 1   
    21     7    14 1   
    22     7    20 1   
    23     7    36 1   
    24     8    14 1   
    25     8    15 2   
    26     8    37 1   
    27     9    10 ar  
    28     9    12 ar  
    29     9    15 1   
    30    10    14 1   
    31    10    16 ar  
    32    11    16 ar  
    33    11    17 ar  
    34    11    38 1   
    35    12    17 ar  
    36    12    18 1   
    37    13    20 1   
    38    13    39 1   
    39    18    40 1   
    40    18    41 1   
    41    19    42 1   
    42    21    43 1   
    43    22    26 1   
    44    23    26 1   
    45    24    26 1   
    46    25    26 1   
@<TRIPOS>SUBSTRUCTURE
     1 YHK         1 TEMP              0 ****  ****    0 ROOT
