@<TRIPOS>MOLECULE
YHK
   43    46     1     0     0
SMALL
abcg2


@<TRIPOS>ATOM
      1 C1         -14.9340    24.7910     8.5380 c5         1 YHK       0.085300
      2 C10        -13.2580    23.5320     7.1080 c3         1 YHK       0.235600
      3 C11        -13.5070    22.5540     3.0870 cx         1 YHK       0.205300
      4 C12        -14.1010    23.9190     2.9980 cx         1 YHK      -0.173400
      5 C13        -14.9270    22.7010     2.6690 cx         1 YHK      -0.173400
      6 C2         -15.9180    25.9060     8.1590 c5         1 YHK       0.093300
      7 C3         -15.9220    25.8000     6.6350 c5         1 YHK       0.315300
      8 C4         -16.9020    23.6030     5.7920 cc         1 YHK       0.434700
      9 C5         -18.9020    24.1730     5.4270 ca         1 YHK      -0.092600
     10 C6         -18.2650    25.3060     5.9080 ca         1 YHK       0.112500
     11 C7         -20.0880    26.5170     5.7510 ca         1 YHK       0.166900
     12 C8         -20.2620    24.3170     5.0990 ca         1 YHK       0.445900
     13 C9         -13.9260    24.8570     7.3920 c5         1 YHK       0.153300
     14 N1         -16.9760    24.9240     6.1410 na         1 YHK      -0.302300
     15 N2         -18.0300    23.1180     5.3610 nd         1 YHK      -0.568100
     16 N3         -18.8120    26.5070     6.0930 nb         1 YHK      -0.214000
     17 N4         -20.8260    25.5170     5.2770 nb         1 YHK      -0.315000
     18 N5         -20.9990    23.3140     4.6190 nv         1 YHK      -1.073900
     19 O1         -14.2890    25.0020     9.7610 oh         1 YHK      -0.703000
     20 O2         -14.6830    25.2840     6.2610 os         1 YHK      -0.419000
     21 O3         -15.4050    27.1650     8.4940 oh         1 YHK      -0.705000
     22 O4         -12.3820    23.6800     6.0140 os         1 YHK      -0.580400
     23 O5         -11.6830    21.2090     6.0990 o          1 YHK      -0.808000
     24 O6         -13.2660    21.9630     4.3250 os         1 YHK      -0.576400
     25 O7         -10.8520    22.8580     4.2210 o          1 YHK      -0.808000
     26 P1         -11.8960    22.3550     5.1630 p5         1 YHK       1.393800
     27 H1         -15.4610    23.8280     8.5200 h1         1 YHK       0.055700
     28 H2         -14.0250    22.7700     6.9250 h1         1 YHK       0.026200
     29 H3         -12.7180    23.2260     8.0110 h1         1 YHK       0.026200
     30 H4         -12.7950    22.2790     2.3140 h1         1 YHK       0.069700
     31 H5         -13.7790    24.5640     2.1910 hc         1 YHK       0.065700
     32 H6         -14.3240    24.4330     3.9230 hc         1 YHK       0.065700
     33 H7         -15.1800    22.5060     1.6350 hc         1 YHK       0.065700
     34 H8         -15.6950    22.4180     3.3780 hc         1 YHK       0.065700
     35 H9         -16.9190    25.7470     8.5800 h1         1 YHK       0.061700
     36 H10        -16.0900    26.7780     6.1760 h2         1 YHK       0.116700
     37 H11        -15.9840    23.0400     5.8570 h5         1 YHK       0.097800
     38 H12        -20.6070    27.4630     5.8690 h5         1 YHK       0.036100
     39 H13        -13.1620    25.6110     7.6170 h1         1 YHK       0.087700
     40 H14        -21.9710    23.4560     4.4010 hn         1 YHK       0.502500
     41 H15        -20.6070    22.3990     4.4800 hn         1 YHK       0.502500
     42 H16        -14.8490    24.6720    10.4720 ho         1 YHK       0.505000
     43 H17        -14.9450    27.0810     9.3390 ho         1 YHK       0.520000
@<TRIPOS>BOND
     1     1     6 1   
     2     1    13 1   
     3     1    19 1   
     4     1    27 1   
     5     2    13 1   
     6     2    22 1   
     7     2    28 1   
     8     2    29 1   
     9     3     4 1   
    10     3     5 1   
    11     3    24 1   
    12     3    30 1   
    13     4     5 1   
    14     4    31 1   
    15     4    32 1   
    16     5    33 1   
    17     5    34 1   
    18     6     7 1   
    19     6    21 1   
    20     6    35 1   
    21     7    14 1   
    22     7    20 1   
    23     7    36 1   
    24     8    14 1   
    25     8    15 2   
    26     8    37 1   
    27     9    10 ar  
    28     9    12 ar  
    29     9    15 1   
    30    10    14 1   
    31    10    16 ar  
    32    11    16 ar  
    33    11    17 ar  
    34    11    38 1   
    35    12    17 ar  
    36    12    18 1   
    37    13    20 1   
    38    13    39 1   
    39    18    40 1   
    40    18    41 1   
    41    19    42 1   
    42    21    43 1   
    43    22    26 1   
    44    23    26 1   
    45    24    26 1   
    46    25    26 1   
@<TRIPOS>SUBSTRUCTURE
     1 YHK         1 TEMP              0 ****  ****    0 ROOT
