@<TRIPOS>MOLECULE
YHL
   50    52     1     0     0
SMALL
No Charge or Current Charge


@<TRIPOS>ATOM
      1 C1         128.3680   129.1190   106.6300 c3         1 YHL      -0.088100
      2 C2         128.5410   128.0270   107.7150 c3         1 YHL      -0.059700
      3 C3         130.0140   127.5830   107.8650 c3         1 YHL      -0.088100
      4 C4         127.5470   126.8320   107.5870 c3         1 YHL      -0.057400
      5 C5         127.8770   125.6680   106.5830 c6         1 YHL      -0.201700
      6 C6         128.0390   126.0800   105.1020 c6         1 YHL       0.181800
      7 C8         129.6990   124.3890   104.3330 c6         1 YHL       0.175800
      8 C9         130.0170   123.4220   103.1710 c6         1 YHL      -0.026100
      9 C10        128.8780   122.4520   102.8420 ca         1 YHL      -0.058300
     10 C11        129.1320   121.3510   102.0040 ca         1 YHL      -0.173000
     11 C12        128.0950   120.4550   101.6590 ca         1 YHL       0.118100
     12 C13        126.7890   120.6740   102.1570 ca         1 YHL       0.112100
     13 C14        126.5370   121.7850   102.9940 ca         1 YHL      -0.165000
     14 C15        127.5750   122.6740   103.3380 ca         1 YHL      -0.076300
     15 C16        127.2760   123.8610   104.2710 c6         1 YHL       0.246800
     16 C17        127.0670   123.3590   105.7160 c6         1 YHL      -0.220400
     17 C18        126.8440   124.5270   106.6650 c          1 YHL       0.573100
     18 C21        124.4310   119.9230   102.2650 c3         1 YHL       0.144900
     19 C23        129.6110   119.0590   100.2870 c3         1 YHL       0.145900
     20 N7         128.3170   124.9240   104.2090 n3         1 YHL      -0.725600
     21 O19        125.8730   124.5560   107.4120 o          1 YHL      -0.519100
     22 O20        125.7870   119.7830   101.8050 os         1 YHL      -0.321100
     23 O22        128.3180   119.3610   100.8390 os         1 YHL      -0.320100
     24 H1         128.9180   130.0240   106.9170 hc         1 YHL       0.032367
     25 H2         128.7480   128.8030   105.6550 hc         1 YHL       0.032367
     26 H3         127.3120   129.3940   106.5180 hc         1 YHL       0.032367
     27 H4         128.2770   128.5200   108.6600 hc         1 YHL       0.044700
     28 H5         130.6510   128.4410   108.1120 hc         1 YHL       0.032367
     29 H6         130.1160   126.8430   108.6680 hc         1 YHL       0.032367
     30 H7         130.3910   127.1390   106.9360 hc         1 YHL       0.032367
     31 H8         126.5510   127.2360   107.3640 hc         1 YHL       0.051700
     32 H9         127.4580   126.3940   108.5890 hc         1 YHL       0.051700
     33 H10        128.8370   125.2170   106.8600 hc         1 YHL       0.066700
     34 H11        128.8590   126.8040   105.0090 h1         1 YHL       0.061200
     35 H12        127.1220   126.5930   104.7740 h1         1 YHL       0.061200
     36 H13        129.8340   123.8580   105.2860 h1         1 YHL       0.034200
     37 H14        130.4350   125.2070   104.3180 h1         1 YHL       0.034200
     38 H15        130.9350   122.8660   103.4040 hc         1 YHL       0.055200
     39 H16        130.2390   124.0140   102.2730 hc         1 YHL       0.055200
     40 H17        130.1410   121.2080   101.6280 ha         1 YHL       0.117000
     41 H18        125.5430   121.9710   103.3880 ha         1 YHL       0.120000
     42 H19        126.3210   124.2970   103.9380 h1         1 YHL       0.071700
     43 H20        126.2430   122.6400   105.7950 hc         1 YHL       0.073200
     44 H21        128.0010   122.8710   106.0190 hc         1 YHL       0.073200
     45 H22        123.8100   119.1100   101.8670 h1         1 YHL       0.039700
     46 H23        124.3840   119.8800   103.3610 h1         1 YHL       0.039700
     47 H24        124.0010   120.8750   101.9290 h1         1 YHL       0.039700
     48 H25        129.5590   118.1520    99.6710 h1         1 YHL       0.039367
     49 H26        129.9660   119.8810    99.6510 h1         1 YHL       0.039367
     50 H27        130.3450   118.8860   101.0840 h1         1 YHL       0.039367
@<TRIPOS>BOND
     1     1     2 1   
     2     1    24 1   
     3     1    25 1   
     4     1    26 1   
     5     2     3 1   
     6     2     4 1   
     7     2    27 1   
     8     3    28 1   
     9     3    29 1   
    10     3    30 1   
    11     4     5 1   
    12     4    31 1   
    13     4    32 1   
    14     5     6 1   
    15     5    17 1   
    16     5    33 1   
    17     6    20 1   
    18     6    34 1   
    19     6    35 1   
    20     7     8 1   
    21     7    20 1   
    22     7    36 1   
    23     7    37 1   
    24     8     9 1   
    25     8    38 1   
    26     8    39 1   
    27     9    10 ar  
    28     9    14 ar  
    29    10    11 ar  
    30    10    40 1   
    31    11    12 ar  
    32    11    23 1   
    33    12    13 ar  
    34    12    22 1   
    35    13    14 ar  
    36    13    41 1   
    37    14    15 1   
    38    15    16 1   
    39    15    20 1   
    40    15    42 1   
    41    16    17 1   
    42    16    43 1   
    43    16    44 1   
    44    17    21 2   
    45    18    22 1   
    46    18    45 1   
    47    18    46 1   
    48    18    47 1   
    49    19    23 1   
    50    19    48 1   
    51    19    49 1   
    52    19    50 1   
@<TRIPOS>SUBSTRUCTURE
     1 YHL         1 TEMP              0 ****  ****    0 ROOT
