@<TRIPOS>MOLECULE
YHL
   50    52     1     0     0
SMALL
abcg2


@<TRIPOS>ATOM
      1 C1         128.4570   129.0090   106.5630 c3         1 YHL      -0.088100
      2 C2         128.5360   127.9310   107.6430 c3         1 YHL      -0.059700
      3 C3         129.9580   127.3990   107.7960 c3         1 YHL      -0.088100
      4 C4         127.4900   126.8110   107.4950 c3         1 YHL      -0.057400
      5 C5         127.8260   125.6340   106.5830 c6         1 YHL      -0.201700
      6 C6         128.0350   126.0130   105.0950 c6         1 YHL       0.181800
      7 C8         129.6650   124.3560   104.3590 c6         1 YHL       0.175800
      8 C9         129.9860   123.5170   103.1370 c6         1 YHL      -0.026100
      9 C10        128.8810   122.5400   102.8430 ca         1 YHL      -0.058300
     10 C11        129.1240   121.4320   102.0220 ca         1 YHL      -0.173000
     11 C12        128.1260   120.5260   101.7140 ca         1 YHL       0.118100
     12 C13        126.8300   120.7270   102.2370 ca         1 YHL       0.112100
     13 C14        126.5940   121.8200   103.0470 ca         1 YHL      -0.165000
     14 C15        127.6110   122.7310   103.3570 ca         1 YHL      -0.076300
     15 C16        127.2960   123.8900   104.2690 c6         1 YHL       0.246800
     16 C17        127.0360   123.3890   105.7160 c6         1 YHL      -0.220400
     17 C18        126.7680   124.5550   106.6280 c          1 YHL       0.573100
     18 C21        124.5980   119.9560   102.3860 c3         1 YHL       0.144900
     19 C23        129.5480   119.2020   100.3640 c3         1 YHL       0.145900
     20 N7         128.3270   124.9010   104.2230 n3         1 YHL      -0.725600
     21 O19        125.7660   124.6290   107.3060 o          1 YHL      -0.519100
     22 O20        125.9090   119.8090   101.8840 os         1 YHL      -0.321100
     23 O22        128.2800   119.4350   100.9400 os         1 YHL      -0.320100
     24 H1         129.1050   129.8500   106.8190 hc         1 YHL       0.032367
     25 H2         128.7680   128.6510   105.5820 hc         1 YHL       0.032367
     26 H3         127.4410   129.3950   106.4660 hc         1 YHL       0.032367
     27 H4         128.2820   128.4310   108.5830 hc         1 YHL       0.044700
     28 H5         130.6480   128.2070   108.0450 hc         1 YHL       0.032367
     29 H6         130.0240   126.6540   108.5910 hc         1 YHL       0.032367
     30 H7         130.3220   126.9350   106.8760 hc         1 YHL       0.032367
     31 H8         126.5410   127.2550   107.1780 hc         1 YHL       0.051700
     32 H9         127.3050   126.4030   108.4930 hc         1 YHL       0.051700
     33 H10        128.7550   125.1580   106.9250 hc         1 YHL       0.066700
     34 H11        128.8560   126.7240   105.0150 h1         1 YHL       0.061200
     35 H12        127.1350   126.5230   104.7330 h1         1 YHL       0.061200
     36 H13        129.7970   123.7480   105.2670 h1         1 YHL       0.034200
     37 H14        130.3700   125.1860   104.4350 h1         1 YHL       0.034200
     38 H15        130.9290   122.9870   103.2880 hc         1 YHL       0.055200
     39 H16        130.1320   124.1760   102.2760 hc         1 YHL       0.055200
     40 H17        130.1250   121.2960   101.6300 ha         1 YHL       0.117000
     41 H18        125.6050   121.9940   103.4510 ha         1 YHL       0.120000
     42 H19        126.3670   124.3570   103.9200 h1         1 YHL       0.071700
     43 H20        126.1950   122.6950   105.7400 hc         1 YHL       0.073200
     44 H21        127.9220   122.8540   106.0740 hc         1 YHL       0.073200
     45 H22        124.0220   119.1190   101.9990 h1         1 YHL       0.039700
     46 H23        124.5710   119.9260   103.4790 h1         1 YHL       0.039700
     47 H24        124.1320   120.8870   102.0500 h1         1 YHL       0.039700
     48 H25        129.4560   118.2960    99.7700 h1         1 YHL       0.039367
     49 H26        129.8580   120.0210    99.7100 h1         1 YHL       0.039367
     50 H27        130.3210   119.0470   101.1220 h1         1 YHL       0.039367
@<TRIPOS>BOND
     1     1     2 1   
     2     1    24 1   
     3     1    25 1   
     4     1    26 1   
     5     2     3 1   
     6     2     4 1   
     7     2    27 1   
     8     3    28 1   
     9     3    29 1   
    10     3    30 1   
    11     4     5 1   
    12     4    31 1   
    13     4    32 1   
    14     5     6 1   
    15     5    17 1   
    16     5    33 1   
    17     6    20 1   
    18     6    34 1   
    19     6    35 1   
    20     7     8 1   
    21     7    20 1   
    22     7    36 1   
    23     7    37 1   
    24     8     9 1   
    25     8    38 1   
    26     8    39 1   
    27     9    10 ar  
    28     9    14 ar  
    29    10    11 ar  
    30    10    40 1   
    31    11    12 ar  
    32    11    23 1   
    33    12    13 ar  
    34    12    22 1   
    35    13    14 ar  
    36    13    41 1   
    37    14    15 1   
    38    15    16 1   
    39    15    20 1   
    40    15    42 1   
    41    16    17 1   
    42    16    43 1   
    43    16    44 1   
    44    17    21 2   
    45    18    22 1   
    46    18    45 1   
    47    18    46 1   
    48    18    47 1   
    49    19    23 1   
    50    19    48 1   
    51    19    49 1   
    52    19    50 1   
@<TRIPOS>SUBSTRUCTURE
     1 YHL         1 TEMP              0 ****  ****    0 ROOT
