@<TRIPOS>MOLECULE
YHM
   36    38     1     0     0
SMALL
No Charge or Current Charge


@<TRIPOS>ATOM
      1 C10        -20.2610   -10.2670    13.0380 cc         1 YHM      -0.103300
      2 C15        -21.4930   -10.9700    13.1420 cc         1 YHM      -0.104000
      3 C20        -21.6060    -2.2340    13.2460 cc         1 YHM       0.227900
      4 C21        -22.0540    -3.4960    13.5200 cd         1 YHM      -0.219000
      5 C22        -21.1800    -5.7930    10.5800 ca         1 YHM      -0.078000
      6 C02        -23.4170    -5.9380     9.6420 ca         1 YHM       0.137000
      7 C03        -23.8780    -6.5150    10.8330 ca         1 YHM      -0.105000
      8 C04        -22.9960    -6.7350    11.9040 ca         1 YHM       0.147000
      9 C06        -21.6280    -6.3730    11.7870 ca         1 YHM      -0.117300
     10 C07        -20.6040    -6.5680    12.9180 c3         1 YHM       0.203600
     11 C09        -20.1910    -8.9090    12.3910 c3         1 YHM       0.226900
     12 C11        -19.2200   -10.9740    13.5900 cd         1 YHM      -0.004000
     13 C14        -21.4030   -12.1930    13.7560 cd         1 YHM      -0.240000
     14 C16        -20.8590    -5.6620    14.1440 c3         1 YHM       0.077600
     15 C18        -19.8320    -3.3710    13.6890 cd         1 YHM       0.384400
     16 C23        -22.0690    -5.5770     9.5140 ca         1 YHM      -0.097000
     17 N17        -20.9150    -4.2290    13.8060 na         1 YHM      -0.178500
     18 N19        -20.2450    -2.1550    13.3500 nc         1 YHM      -0.672000
     19 O08        -20.5990    -7.9350    13.3690 os         1 YHM      -0.445000
     20 S13        -19.7370   -12.5350    14.2520 ss         1 YHM       0.239000
     21 Cl01       -24.5310    -5.6670     8.3080 cl         1 YHM      -0.194000
     22 Cl05       -23.6640    -7.4710    13.3620 cl         1 YHM      -0.191000
     23 Cl12       -17.5660   -10.4460    13.6670 cl         1 YHM      -0.147000
     24 H151       -22.4240   -10.5570    12.7620 ha         1 YHM       0.142000
     25 H201       -22.1860    -1.3610    12.9740 h4         1 YHM       0.039100
     26 H211       -23.0580    -3.9050    13.5260 h4         1 YHM       0.159000
     27 H221       -20.1380    -5.5020    10.4650 ha         1 YHM       0.125000
     28 H031       -24.9240    -6.7950    10.9270 ha         1 YHM       0.146000
     29 H071       -19.6070    -6.3130    12.5340 h1         1 YHM       0.043700
     30 H092       -20.8550    -8.8950    11.5170 h1         1 YHM       0.043200
     31 H091       -19.1680    -8.7100    12.0440 h1         1 YHM       0.043200
     32 H141       -22.1910   -12.9090    13.9540 h4         1 YHM       0.156000
     33 H161       -21.7990    -5.9440    14.6310 h1         1 YHM       0.081200
     34 H162       -20.0540    -5.8190    14.8730 h1         1 YHM       0.081200
     35 H181       -18.8110    -3.6930    13.8580 h5         1 YHM       0.052100
     36 H231       -21.7140    -5.1280     8.5900 ha         1 YHM       0.140000
@<TRIPOS>BOND
     1     1     2 1   
     2     1    11 1   
     3     1    12 2   
     4     2    13 2   
     5     2    24 1   
     6     3     4 2   
     7     3    18 1   
     8     3    25 1   
     9     4    17 1   
    10     4    26 1   
    11     5     9 ar  
    12     5    16 ar  
    13     5    27 1   
    14     6     7 ar  
    15     6    16 ar  
    16     6    21 1   
    17     7     8 ar  
    18     7    28 1   
    19     8     9 ar  
    20     8    22 1   
    21     9    10 1   
    22    10    14 1   
    23    10    19 1   
    24    10    29 1   
    25    11    19 1   
    26    11    30 1   
    27    11    31 1   
    28    12    20 1   
    29    12    23 1   
    30    13    20 1   
    31    13    32 1   
    32    14    17 1   
    33    14    33 1   
    34    14    34 1   
    35    15    17 1   
    36    15    18 2   
    37    15    35 1   
    38    16    36 1   
@<TRIPOS>SUBSTRUCTURE
     1 YHM         1 TEMP              0 ****  ****    0 ROOT
