@<TRIPOS>MOLECULE
YHM
   36    38     1     0     0
SMALL
abcg2


@<TRIPOS>ATOM
      1 C10        -20.2930   -10.2550    13.0630 cc         1 YHM      -0.103300
      2 C15        -21.4470   -11.0930    12.9730 cc         1 YHM      -0.104000
      3 C20        -21.6360    -2.3580    13.0850 cc         1 YHM       0.227900
      4 C21        -22.0420    -3.5890    13.5250 cd         1 YHM      -0.219000
      5 C22        -21.2180    -5.7490    10.6490 ca         1 YHM      -0.078000
      6 C02        -23.4240    -5.7700     9.7500 ca         1 YHM       0.137000
      7 C03        -23.8970    -6.3890    10.8960 ca         1 YHM      -0.105000
      8 C04        -23.0050    -6.6730    11.9220 ca         1 YHM       0.147000
      9 C06        -21.6460    -6.3630    11.8260 ca         1 YHM      -0.117300
     10 C07        -20.6200    -6.6070    12.9160 c3         1 YHM       0.203600
     11 C09        -20.1900    -8.9010    12.4500 c3         1 YHM       0.226900
     12 C11        -19.3160   -10.8520    13.8130 cd         1 YHM      -0.004000
     13 C14        -21.3150   -12.2750    13.6370 cd         1 YHM      -0.240000
     14 C16        -20.8050    -5.7000    14.1420 c3         1 YHM       0.077600
     15 C18        -19.8450    -3.4860    13.4540 cd         1 YHM       0.384400
     16 C23        -22.0840    -5.4410     9.6100 ca         1 YHM      -0.097000
     17 N17        -20.8880    -4.3010    13.7650 na         1 YHM      -0.178500
     18 N19        -20.2570    -2.3020    13.0450 nc         1 YHM      -0.672000
     19 O08        -20.6120    -7.9320    13.4170 os         1 YHM      -0.445000
     20 S13        -19.7750   -12.4080    14.4010 ss         1 YHM       0.239000
     21 CL01       -24.5440    -5.4050     8.4600 cl         1 YHM      -0.194000
     22 CL05       -23.6750    -7.4330    13.3490 cl         1 YHM      -0.191000
     23 CL12       -17.7670   -10.2000    14.1940 cl         1 YHM      -0.147000
     24 H151       -22.3340   -10.8080    12.4250 ha         1 YHM       0.142000
     25 H201       -22.2480    -1.5170    12.8040 h4         1 YHM       0.039100
     26 H211       -23.0150    -4.0190    13.6870 h4         1 YHM       0.159000
     27 H221       -20.1680    -5.5030    10.5480 ha         1 YHM       0.125000
     28 H031       -24.9430    -6.6420    10.9970 ha         1 YHM       0.146000
     29 H071       -19.6390    -6.3820    12.4800 h1         1 YHM       0.043700
     30 H092       -20.8310    -8.8480    11.5650 h1         1 YHM       0.043200
     31 H091       -19.1620    -8.6810    12.1430 h1         1 YHM       0.043200
     32 H141       -22.0250   -13.0820    13.7220 h4         1 YHM       0.156000
     33 H161       -21.7110    -5.9680    14.6780 h1         1 YHM       0.081200
     34 H162       -19.9550    -5.8410    14.8080 h1         1 YHM       0.081200
     35 H181       -18.8200    -3.8070    13.5530 h5         1 YHM       0.052100
     36 H231       -21.7240    -4.9620     8.7110 ha         1 YHM       0.140000
@<TRIPOS>BOND
     1     1     2 1   
     2     1    11 1   
     3     1    12 2   
     4     2    13 2   
     5     2    24 1   
     6     3     4 2   
     7     3    18 1   
     8     3    25 1   
     9     4    17 1   
    10     4    26 1   
    11     5     9 ar  
    12     5    16 ar  
    13     5    27 1   
    14     6     7 ar  
    15     6    16 ar  
    16     6    21 1   
    17     7     8 ar  
    18     7    28 1   
    19     8     9 ar  
    20     8    22 1   
    21     9    10 1   
    22    10    14 1   
    23    10    19 1   
    24    10    29 1   
    25    11    19 1   
    26    11    30 1   
    27    11    31 1   
    28    12    20 1   
    29    12    23 1   
    30    13    20 1   
    31    13    32 1   
    32    14    17 1   
    33    14    33 1   
    34    14    34 1   
    35    15    17 1   
    36    15    18 2   
    37    15    35 1   
    38    16    36 1   
@<TRIPOS>SUBSTRUCTURE
     1 YHM         1 TEMP              0 ****  ****    0 ROOT
