@<TRIPOS>MOLECULE
YHO
   20    20     1     0     0
SMALL
bcc


@<TRIPOS>ATOM
      1 O3           1.4900    -1.6870     0.4900 oh         1 YHO      -0.595800
      2 C3           0.6950    -0.5920     0.8570 c5         1 YHO       0.078100
      3 C2          -0.7700    -0.7440     0.4350 c5         1 YHO       0.134100
      4 O2          -0.8710    -1.2720    -0.8670 oh         1 YHO      -0.595800
      5 C1          -1.2520     0.7020     0.4120 c5         1 YHO       0.160500
      6 N1          -2.5730     0.8560    -0.1620 n8         1 YHO      -0.864800
      7 C5          -0.0940     1.4410    -0.2740 c5         1 YHO      -0.128400
      8 C4           1.1820     0.7430     0.2030 c5         1 YHO       0.115100
      9 O4           2.0630     0.4730    -0.8740 oh         1 YHO      -0.595800
     10 HO3          2.0030    -1.3890    -0.2770 ho         1 YHO       0.424000
     11 H3           0.7270    -0.4800     1.9470 h1         1 YHO       0.065700
     12 H2          -1.3420    -1.3510     1.1510 h1         1 YHO       0.062700
     13 HO2         -0.2740    -2.0270    -0.9190 ho         1 YHO       0.416000
     14 H1          -1.3110     1.0290     1.4560 h1         1 YHO       0.057700
     15 HN1         -2.8520     1.8270    -0.1040 hn         1 YHO       0.345300
     16 HN1A        -2.5380     0.6390    -1.1500 hn         1 YHO       0.345300
     17 H5          -0.1830     1.3220    -1.3570 hc         1 YHO       0.062200
     18 H5A         -0.0980     2.5110    -0.0630 hc         1 YHO       0.062200
     19 H4           1.6960     1.3430     0.9570 h1         1 YHO       0.040700
     20 HO4          2.9550     0.7190    -0.6150 ho         1 YHO       0.412000
@<TRIPOS>BOND
     1     1     2 1   
     2     1    10 1   
     3     2     3 1   
     4     2     8 1   
     5     2    11 1   
     6     3     4 1   
     7     3     5 1   
     8     3    12 1   
     9     4    13 1   
    10     5     6 1   
    11     5     7 1   
    12     5    14 1   
    13     6    15 1   
    14     6    16 1   
    15     7     8 1   
    16     7    17 1   
    17     7    18 1   
    18     8     9 1   
    19     8    19 1   
    20     9    20 1   
@<TRIPOS>SUBSTRUCTURE
     1 YHO         1 TEMP              0 ****  ****    0 ROOT
