@<TRIPOS>MOLECULE
YHO
   20    20     1     0     0
SMALL
No Charge or Current Charge


@<TRIPOS>ATOM
      1 O3           1.0590    -1.5420    -0.6020 oh         1 YHO      -0.658000
      2 C3           0.6720    -0.8370     0.5930 c5         1 YHO       0.101300
      3 C2          -0.8930    -0.6820     0.6830 c5         1 YHO       0.157300
      4 O2          -1.5000    -1.5500    -0.2830 oh         1 YHO      -0.718000
      5 C1          -1.1650     0.8510     0.4060 c5         1 YHO       0.160500
      6 N1          -2.4120     1.1110    -0.3320 n8         1 YHO      -0.975200
      7 C5           0.0980     1.2980    -0.3670 c5         1 YHO      -0.128400
      8 C4           1.1820     0.6390     0.5200 c5         1 YHO       0.138300
      9 O4           2.4840     0.7140    -0.0700 oh         1 YHO      -0.718000
     10 HO3          1.8700    -1.0560    -0.8940 ho         1 YHO       0.463000
     11 H3           1.0720    -1.3410     1.4840 h1         1 YHO       0.065700
     12 H2          -1.2480    -0.9400     1.6910 h1         1 YHO       0.062700
     13 HO2         -0.6990    -1.8740    -0.7760 ho         1 YHO       0.515000
     14 H1          -1.2280     1.3980     1.3600 h1         1 YHO       0.057700
     15 HN1         -2.1860     1.6170    -1.1950 hn         1 YHO       0.400500
     16 HN1A        -2.7270     0.1940    -0.6770 hn         1 YHO       0.400500
     17 H5           0.1150     0.9260    -1.3990 hc         1 YHO       0.062200
     18 H5A          0.1970     2.3890    -0.4030 hc         1 YHO       0.062200
     19 H4           1.1910     1.0900     1.5230 h1         1 YHO       0.040700
     20 HO4          2.7720     1.6570    -0.0170 ho         1 YHO       0.511000
@<TRIPOS>BOND
     1     1     2 1   
     2     1    10 1   
     3     2     3 1   
     4     2     8 1   
     5     2    11 1   
     6     3     4 1   
     7     3     5 1   
     8     3    12 1   
     9     4    13 1   
    10     5     6 1   
    11     5     7 1   
    12     5    14 1   
    13     6    15 1   
    14     6    16 1   
    15     7     8 1   
    16     7    17 1   
    17     7    18 1   
    18     8     9 1   
    19     8    19 1   
    20     9    20 1   
@<TRIPOS>SUBSTRUCTURE
     1 YHO         1 TEMP              0 ****  ****    0 ROOT
