@<TRIPOS>MOLECULE
YHP
   65    69     1     0     0
SMALL
No Charge or Current Charge


@<TRIPOS>ATOM
      1 C14         17.7860    -9.5930    -3.2640 ca         1 YHP      -0.125000
      2 C11         16.2300    -8.5350    -6.5880 c          1 YHP       0.616700
      3 C12         16.5660    -9.3620    -5.3680 ca         1 YHP      -0.155600
      4 C13         17.4490    -8.8400    -4.3990 ca         1 YHP      -0.030000
      5 C02         15.1310   -13.5890    -8.7200 ca         1 YHP       0.175000
      6 C03         16.3580   -12.9170    -8.6210 ca         1 YHP      -0.153500
      7 C04         16.4490   -11.5650    -8.9950 ca         1 YHP      -0.079500
      8 C05         13.9930   -12.9180    -9.1910 ca         1 YHP      -0.153500
      9 C06         14.0800   -11.5650    -9.5630 ca         1 YHP      -0.079500
     10 C07         15.3100   -10.8780    -9.4680 ca         1 YHP      -0.098300
     11 C08         15.4100    -9.3850    -9.8250 c6         1 YHP       0.068900
     12 C09         14.8050    -8.4880    -8.7070 c6         1 YHP       0.035700
     13 C15         17.2600   -10.8820    -3.0840 ca         1 YHP      -0.039000
     14 C16         16.3900   -11.4330    -4.0490 ca         1 YHP      -0.205300
     15 C17         15.8100   -12.8430    -3.8900 c3         1 YHP       0.357300
     16 C21         16.0440   -10.6660    -5.1810 ca         1 YHP      -0.041000
     17 C23         14.7340    -9.0680   -11.1280 cc         1 YHP      -0.254300
     18 C24         13.5070    -8.5140   -11.2600 cd         1 YHP       0.011600
     19 C27         10.4360    -9.2450   -10.4830 c3         1 YHP      -0.119100
     20 C28         13.2710    -8.2180    -8.8560 c          1 YHP       0.562000
     21 C31         12.2990    -7.7200   -13.1940 ca         1 YHP       0.008800
     22 C32         12.3440    -6.3120   -13.1630 ca         1 YHP      -0.095500
     23 C33         11.2870    -5.5590   -13.7050 ca         1 YHP      -0.105000
     24 C34         10.1880    -6.2100   -14.2900 ca         1 YHP      -0.101000
     25 C35         10.1480    -7.6140   -14.3400 ca         1 YHP      -0.105000
     26 C36         11.2040    -8.3680   -13.7990 ca         1 YHP      -0.095500
     27 C38         15.2440    -9.3190   -12.4240 cc         1 YHP       0.294300
     28 C39         16.6050    -9.9520   -12.6900 c3         1 YHP       0.122500
     29 F01         15.0450   -14.8870    -8.3590 f          1 YHP      -0.177000
     30 F18         16.4040   -13.5520    -2.9020 f          1 YHP      -0.112000
     31 F19         15.9470   -13.5690    -5.0230 f          1 YHP      -0.112000
     32 F20         14.4900   -12.8020    -3.6050 f          1 YHP      -0.112000
     33 N10         15.1850    -8.9870    -7.3590 ns         1 YHP      -0.490900
     34 N25         12.7000    -8.1920   -10.1610 n          1 YHP      -0.294000
     35 N30         13.3470    -8.4660   -12.6610 na         1 YHP       0.201000
     36 N37         14.4290    -8.9310   -13.3880 nd         1 YHP      -0.476800
     37 N40         17.7270    -8.9760   -12.7980 n8         1 YHP      -0.982200
     38 O22         16.8670    -7.5390    -6.9020 o          1 YHP      -0.596100
     39 H141        18.4620    -9.1760    -2.5200 ha         1 YHP       0.127000
     40 H131        17.8720    -7.8440    -4.5200 ha         1 YHP       0.140000
     41 H031        17.2350   -13.4430    -8.2520 ha         1 YHP       0.135000
     42 H041        17.4030   -11.0490    -8.9050 ha         1 YHP       0.120500
     43 H051        13.0450   -13.4450    -9.2630 ha         1 YHP       0.135000
     44 H061        13.1890   -11.0530    -9.9190 ha         1 YHP       0.120500
     45 H081        16.4740    -9.1220    -9.9030 hc         1 YHP       0.085700
     46 H091        15.2390    -7.4880    -8.8420 h1         1 YHP       0.105700
     47 H151        17.5380   -11.4450    -2.1950 ha         1 YHP       0.134000
     48 H211        15.3820   -11.1110    -5.9210 ha         1 YHP       0.132000
     49 H262        10.8560    -7.4320    -9.3960 h1         1 YHP       0.071200
     50 H261        11.0370    -7.2620   -11.1170 h1         1 YHP       0.071200
     51 H272         9.3710    -9.0210   -10.6130 hc         1 YHP       0.046367
     52 H271        10.7850    -9.7940   -11.3650 hc         1 YHP       0.046367
     53 H273        10.5470    -9.8970    -9.6080 hc         1 YHP       0.046367
     54 H321        13.1940    -5.8040   -12.7110 ha         1 YHP       0.131500
     55 H331        11.3220    -4.4720   -13.6720 ha         1 YHP       0.121500
     56 H341         9.3710    -5.6270   -14.7090 ha         1 YHP       0.119000
     57 H351         9.3000    -8.1180   -14.8000 ha         1 YHP       0.121500
     58 H361        11.1710    -9.4550   -13.8450 ha         1 YHP       0.131500
     59 H392        16.5490   -10.5210   -13.6280 h1         1 YHP       0.042700
     60 H391        16.8370   -10.6670   -11.8880 h1         1 YHP       0.042700
     61 H101        14.6780    -9.7840    -6.9960 hn         1 YHP       0.342500
     62 H402        18.5840    -9.4730   -13.0700 hn         1 YHP       0.397500
     63 H1          17.5470    -8.3490   -13.5920 hn         1 YHP       0.397500
     64 O29         12.5990    -7.9700    -7.8600 o          1 YHP      -0.529000
     65 C26         11.2370    -7.9450   -10.2880 c3         1 YHP       0.091000
@<TRIPOS>BOND
     1     1     4 ar  
     2     1    13 ar  
     3     1    39 1   
     4     2     3 1   
     5     2    33 1   
     6     2    38 2   
     7     3     4 ar  
     8     3    16 ar  
     9     4    40 1   
    10     5     6 ar  
    11     5     8 ar  
    12     5    29 1   
    13     6     7 ar  
    14     6    41 1   
    15     7    10 ar  
    16     7    42 1   
    17     8     9 ar  
    18     8    43 1   
    19     9    10 ar  
    20     9    44 1   
    21    10    11 1   
    22    11    12 1   
    23    11    17 1   
    24    11    45 1   
    25    12    20 1   
    26    12    33 1   
    27    12    46 1   
    28    13    14 ar  
    29    13    47 1   
    30    14    15 1   
    31    14    16 ar  
    32    15    30 1   
    33    15    31 1   
    34    15    32 1   
    35    16    48 1   
    36    17    18 2   
    37    17    27 1   
    38    18    34 1   
    39    18    35 1   
    40    19    51 1   
    41    19    52 1   
    42    19    53 1   
    43    19    65 1   
    44    20    34 1   
    45    20    64 2   
    46    21    22 ar  
    47    21    26 ar  
    48    21    35 1   
    49    22    23 ar  
    50    22    54 1   
    51    23    24 ar  
    52    23    55 1   
    53    24    25 ar  
    54    24    56 1   
    55    25    26 ar  
    56    25    57 1   
    57    26    58 1   
    58    27    28 1   
    59    27    36 2   
    60    28    37 1   
    61    28    59 1   
    62    28    60 1   
    63    33    61 1   
    64    34    65 1   
    65    35    36 1   
    66    37    62 1   
    67    37    63 1   
    68    49    65 1   
    69    50    65 1   
@<TRIPOS>SUBSTRUCTURE
     1 YHP         1 TEMP              0 ****  ****    0 ROOT
