@<TRIPOS>MOLECULE
YHP
   65    69     1     0     0
SMALL
abcg2


@<TRIPOS>ATOM
      1 C14         17.5490    -9.0180    -3.2370 ca         1 YHP      -0.125000
      2 C11         16.2470    -8.6980    -6.7510 c          1 YHP       0.616700
      3 C12         16.5380    -9.2800    -5.4050 ca         1 YHP      -0.155600
      4 C13         17.2280    -8.5010    -4.4790 ca         1 YHP      -0.030000
      5 C02         14.7390   -13.7990    -8.9080 ca         1 YHP       0.175000
      6 C03         15.8400   -13.1630    -8.3670 ca         1 YHP      -0.153500
      7 C04         16.0450   -11.8260    -8.6730 ca         1 YHP      -0.079500
      8 C05         13.8530   -13.1450    -9.7400 ca         1 YHP      -0.153500
      9 C06         14.0770   -11.8060   -10.0300 ca         1 YHP      -0.079500
     10 C07         15.1670   -11.1250    -9.4970 ca         1 YHP      -0.098300
     11 C08         15.3990    -9.6540    -9.7580 c6         1 YHP       0.068900
     12 C09         14.7580    -8.7460    -8.6740 c6         1 YHP       0.035700
     13 C15         17.2180   -10.3280    -2.9130 ca         1 YHP      -0.039000
     14 C16         16.5530   -11.1130    -3.8430 ca         1 YHP      -0.205300
     15 C17         16.1870   -12.5360    -3.5500 c3         1 YHP       0.357300
     16 C21         16.2040   -10.5890    -5.0830 ca         1 YHP      -0.041000
     17 C23         14.8520    -9.1490   -11.0450 cc         1 YHP      -0.254300
     18 C24         13.6290    -8.5330   -11.1050 cd         1 YHP       0.011600
     19 C27         10.8270    -9.8540   -10.7250 c3         1 YHP      -0.119100
     20 C28         13.2360    -8.6940    -8.7910 c          1 YHP       0.562000
     21 C31         12.4400    -7.3010   -12.9370 ca         1 YHP       0.008800
     22 C32         12.2560    -6.0160   -12.4430 ca         1 YHP      -0.095500
     23 C33         11.2640    -5.2140   -12.9860 ca         1 YHP      -0.105000
     24 C34         10.4780    -5.6860   -14.0300 ca         1 YHP      -0.101000
     25 C35         10.6830    -6.9660   -14.5300 ca         1 YHP      -0.105000
     26 C36         11.6630    -7.7810   -13.9820 ca         1 YHP      -0.095500
     27 C38         15.3460    -9.0890   -12.3610 cc         1 YHP       0.294300
     28 C39         16.6410    -9.6620   -12.8410 c3         1 YHP       0.122500
     29 F01         14.5330   -15.0960    -8.6280 f          1 YHP      -0.177000
     30 F18         16.6390   -12.9520    -2.3650 f          1 YHP      -0.112000
     31 F19         16.6780   -13.3740    -4.4750 f          1 YHP      -0.112000
     32 F20         14.8570   -12.7100    -3.5480 f          1 YHP      -0.112000
     33 N10         15.1130    -9.1210    -7.3380 ns         1 YHP      -0.490900
     34 N25         12.7390    -8.4210   -10.0400 n          1 YHP      -0.294000
     35 N30         13.4470    -8.1260   -12.3810 na         1 YHP       0.201000
     36 N37         14.4950    -8.4790   -13.1550 nd         1 YHP      -0.476800
     37 N40         16.8520    -9.4450   -14.2580 n8         1 YHP      -0.982200
     38 O22         17.0100    -7.8970    -7.2670 o          1 YHP      -0.596100
     39 H141        18.0690    -8.4040    -2.5140 ha         1 YHP       0.127000
     40 H131        17.5060    -7.4860    -4.7290 ha         1 YHP       0.140000
     41 H031        16.5290   -13.6990    -7.7280 ha         1 YHP       0.135000
     42 H041        16.9170   -11.3250    -8.2710 ha         1 YHP       0.120500
     43 H051        13.0050   -13.6690   -10.1610 ha         1 YHP       0.135000
     44 H061        13.3920   -11.3030   -10.7010 ha         1 YHP       0.120500
     45 H081        16.4750    -9.4640    -9.7130 hc         1 YHP       0.085700
     46 H091        15.1260    -7.7310    -8.8640 h1         1 YHP       0.105700
     47 H151        17.4890   -10.7180    -1.9420 ha         1 YHP       0.134000
     48 H211        15.6970   -11.2150    -5.8080 ha         1 YHP       0.132000
     49 H262        10.8160    -8.2250    -9.3100 h1         1 YHP       0.071200
     50 H261        11.0020    -7.7180   -10.9640 h1         1 YHP       0.071200
     51 H272         9.7470    -9.8410   -10.8740 hc         1 YHP       0.046367
     52 H271        11.2870   -10.1320   -11.6740 hc         1 YHP       0.046367
     53 H273        11.0560   -10.6290    -9.9930 hc         1 YHP       0.046367
     54 H321        12.8800    -5.6490   -11.6370 ha         1 YHP       0.131500
     55 H331        11.1110    -4.2150   -12.6000 ha         1 YHP       0.121500
     56 H341         9.7070    -5.0570   -14.4550 ha         1 YHP       0.119000
     57 H351        10.0730    -7.3360   -15.3430 ha         1 YHP       0.121500
     58 H361        11.8210    -8.7840   -14.3570 ha         1 YHP       0.131500
     59 H392        16.6710   -10.7190   -12.5370 h1         1 YHP       0.042700
     60 H391        17.4530    -9.1790   -12.2900 h1         1 YHP       0.042700
     61 H101        14.4570    -9.6850    -6.8190 hn         1 YHP       0.342500
     62 H402        17.7560    -9.8190   -14.5130 hn         1 YHP       0.397500
     63 H1          16.1720    -9.9760   -14.7880 hn         1 YHP       0.397500
     64 O29         12.5190    -8.8650    -7.8280 o          1 YHP      -0.529000
     65 C26         11.2890    -8.4870   -10.2520 c3         1 YHP       0.091000
@<TRIPOS>BOND
     1     1     4 ar  
     2     1    13 ar  
     3     1    39 1   
     4     2     3 1   
     5     2    33 1   
     6     2    38 2   
     7     3     4 ar  
     8     3    16 ar  
     9     4    40 1   
    10     5     6 ar  
    11     5     8 ar  
    12     5    29 1   
    13     6     7 ar  
    14     6    41 1   
    15     7    10 ar  
    16     7    42 1   
    17     8     9 ar  
    18     8    43 1   
    19     9    10 ar  
    20     9    44 1   
    21    10    11 1   
    22    11    12 1   
    23    11    17 1   
    24    11    45 1   
    25    12    20 1   
    26    12    33 1   
    27    12    46 1   
    28    13    14 ar  
    29    13    47 1   
    30    14    15 1   
    31    14    16 ar  
    32    15    30 1   
    33    15    31 1   
    34    15    32 1   
    35    16    48 1   
    36    17    18 2   
    37    17    27 1   
    38    18    34 1   
    39    18    35 1   
    40    19    51 1   
    41    19    52 1   
    42    19    53 1   
    43    19    65 1   
    44    20    34 1   
    45    20    64 2   
    46    21    22 ar  
    47    21    26 ar  
    48    21    35 1   
    49    22    23 ar  
    50    22    54 1   
    51    23    24 ar  
    52    23    55 1   
    53    24    25 ar  
    54    24    56 1   
    55    25    26 ar  
    56    25    57 1   
    57    26    58 1   
    58    27    28 1   
    59    27    36 2   
    60    28    37 1   
    61    28    59 1   
    62    28    60 1   
    63    33    61 1   
    64    34    65 1   
    65    35    36 1   
    66    37    62 1   
    67    37    63 1   
    68    49    65 1   
    69    50    65 1   
@<TRIPOS>SUBSTRUCTURE
     1 YHP         1 TEMP              0 ****  ****    0 ROOT
