@<TRIPOS>MOLECULE
YHQ
   45    47     1     0     0
SMALL
No Charge or Current Charge


@<TRIPOS>ATOM
      1 C1         -13.5930     8.9320   -25.4050 c5         1 YHQ       0.093300
      2 C2         -14.8070     9.0410   -26.3850 c5         1 YHQ       0.132300
      3 C3         -15.3200     7.5640   -26.4190 c5         1 YHQ       0.310300
      4 C4         -16.5590     7.7930   -24.1800 cc         1 YHQ       0.431700
      5 C5         -17.6890     5.9610   -24.2080 ca         1 YHQ      -0.093600
      6 C6         -16.9460     5.9430   -25.3620 ca         1 YHQ       0.117500
      7 O1         -12.5700     9.8770   -25.7870 oh         1 YHQ      -0.722000
      8 C7         -17.8730     3.9280   -25.9250 ca         1 YHQ       0.168900
      9 C8         -18.5520     4.8740   -23.9560 ca         1 YHQ       0.445900
     10 C9         -13.1340     7.4310   -25.5390 c5         1 YHQ       0.123300
     11 C10        -13.0330     6.6920   -24.1740 c3         1 YHQ       0.235600
     12 C11        -14.0200     2.8240   -23.6940 c3         1 YHQ       0.238300
     13 C12        -15.4480     2.5480   -23.1860 c3         1 YHQ      -0.103600
     14 C13        -13.9880     3.1340   -25.2090 c3         1 YHQ      -0.103600
     15 O2         -14.1030     6.7900   -26.4130 os         1 YHQ      -0.418000
     16 O3         -14.3130     9.5010   -27.6480 oh         1 YHQ      -0.706000
     17 O4         -12.2650     5.4970   -24.3550 os         1 YHQ      -0.581400
     18 O5         -11.6370     5.3170   -21.8820 o          1 YHQ      -0.812000
     19 N1         -16.2190     7.1010   -25.3510 na         1 YHQ      -0.294300
     20 O6         -13.5280     3.9370   -22.9290 os         1 YHQ      -0.618400
     21 N4         -18.6460     3.8470   -24.8150 nb         1 YHQ      -0.314000
     22 O7         -11.0490     3.4510   -23.3830 o          1 YHQ      -0.812000
     23 N2         -17.4590     7.1110   -23.4470 nd         1 YHQ      -0.572100
     24 N3         -17.0250     4.9330   -26.2510 nb         1 YHQ      -0.210000
     25 N5         -19.3310     4.7960   -22.8440 nv         1 YHQ      -1.073900
     26 P1         -12.0360     4.5320   -23.0870 p5         1 YHQ       1.397800
     27 H1         -13.9260     9.1370   -24.3780 h1         1 YHQ       0.044700
     28 H2         -15.5750     9.7300   -26.0070 h1         1 YHQ       0.058700
     29 H3         -15.8710     7.3860   -27.3520 h2         1 YHQ       0.117700
     30 H4         -16.1400     8.7590   -23.9250 h5         1 YHQ       0.086800
     31 H5         -11.9550     9.9850   -25.0190 ho         1 YHQ       0.524000
     32 H6         -17.9430     3.1020   -26.6310 h5         1 YHQ       0.038100
     33 H7         -12.1500     7.3730   -26.0240 h1         1 YHQ       0.086700
     34 H8         -12.5350     7.3550   -23.4540 h1         1 YHQ       0.021200
     35 H9         -14.0370     6.4660   -23.7940 h1         1 YHQ       0.021200
     36 H10        -13.4100     1.9290   -23.5060 h1         1 YHQ       0.043700
     37 H11        -15.4350     2.2900   -22.1210 hc         1 YHQ       0.028200
     38 H12        -16.0840     3.4300   -23.3210 hc         1 YHQ       0.028200
     39 H13        -15.8970     1.7110   -23.7330 hc         1 YHQ       0.028200
     40 H14        -14.5290     2.3610   -25.7680 hc         1 YHQ       0.028200
     41 H15        -14.4600     4.0990   -25.4210 hc         1 YHQ       0.028200
     42 H16        -12.9600     3.1520   -25.5900 hc         1 YHQ       0.028200
     43 H17        -13.4190     9.8480   -27.3800 ho         1 YHQ       0.524000
     44 H19        -19.6930     3.8840   -22.5790 hn         1 YHQ       0.502500
     45 H20        -19.1200     5.4430   -22.0880 hn         1 YHQ       0.502500
@<TRIPOS>BOND
     1     1     2 1   
     2     1     7 1   
     3     1    10 1   
     4     1    27 1   
     5     2     3 1   
     6     2    16 1   
     7     2    28 1   
     8     3    15 1   
     9     3    19 1   
    10     3    29 1   
    11     4    19 1   
    12     4    23 2   
    13     4    30 1   
    14     5     6 ar  
    15     5     9 ar  
    16     5    23 1   
    17     6    19 1   
    18     6    24 ar  
    19     7    31 1   
    20     8    21 ar  
    21     8    24 ar  
    22     8    32 1   
    23     9    21 ar  
    24     9    25 1   
    25    10    11 1   
    26    10    15 1   
    27    10    33 1   
    28    11    17 1   
    29    11    34 1   
    30    11    35 1   
    31    12    13 1   
    32    12    14 1   
    33    12    20 1   
    34    12    36 1   
    35    13    37 1   
    36    13    38 1   
    37    13    39 1   
    38    14    40 1   
    39    14    41 1   
    40    14    42 1   
    41    16    43 1   
    42    17    26 1   
    43    18    26 1   
    44    20    26 1   
    45    22    26 1   
    46    25    44 1   
    47    25    45 1   
@<TRIPOS>SUBSTRUCTURE
     1 YHQ         1 TEMP              0 ****  ****    0 ROOT
