@<TRIPOS>MOLECULE
YHQ
   45    47     1     0     0
SMALL
abcg2


@<TRIPOS>ATOM
      1 C1         -14.0390     8.3920   -25.3020 c5         1 YHQ       0.093300
      2 C2         -15.1200     8.2950   -26.3770 c5         1 YHQ       0.132300
      3 C3         -15.3780     6.7860   -26.4210 c5         1 YHQ       0.310300
      4 C4         -16.5720     6.0590   -24.2910 cc         1 YHQ       0.431700
      5 C5         -18.5690     5.9650   -24.9720 ca         1 YHQ      -0.093600
      6 C6         -17.8110     6.3410   -26.0690 ca         1 YHQ       0.117500
      7 O1         -13.3070     9.5710   -25.4560 oh         1 YHQ      -0.722000
      8 C7         -19.5700     6.4390   -27.3780 ca         1 YHQ       0.168900
      9 C8         -19.9540     5.8320   -25.1910 ca         1 YHQ       0.445900
     10 C9         -13.2450     7.1060   -25.5490 c5         1 YHQ       0.123300
     11 C10        -12.4820     6.6200   -24.3400 c3         1 YHQ       0.235600
     12 C11        -12.6710     2.9280   -22.6990 c3         1 YHQ       0.238300
     13 C12        -13.2910     2.5460   -21.3660 c3         1 YHQ      -0.103600
     14 C13        -13.7290     3.0500   -23.7840 c3         1 YHQ      -0.103600
     15 O2         -14.2340     6.1520   -25.9310 os         1 YHQ      -0.418000
     16 O3         -14.6370     8.6670   -27.6390 oh         1 YHQ      -0.706000
     17 O4         -11.7380     5.4740   -24.6800 os         1 YHQ      -0.581400
     18 O5         -10.0590     5.7260   -22.7540 o          1 YHQ      -0.812000
     19 N1         -16.5240     6.3950   -25.6170 na         1 YHQ      -0.294300
     20 O6         -11.9690     4.1490   -22.4950 os         1 YHQ      -0.618400
     21 N4         -20.4210     6.0800   -26.4200 nb         1 YHQ      -0.314000
     22 O7         -10.1680     3.5770   -24.2540 o          1 YHQ      -0.812000
     23 N2         -17.7740     5.7920   -23.8700 nd         1 YHQ      -0.572100
     24 N3         -18.2600     6.5960   -27.2970 nb         1 YHQ      -0.210000
     25 N5         -20.8080     5.4760   -24.2300 nv         1 YHQ      -1.073900
     26 P1         -10.8290     4.7080   -23.5330 p5         1 YHQ       1.397800
     27 H1         -14.5190     8.3400   -24.3140 h1         1 YHQ       0.044700
     28 H2         -16.0270     8.8500   -26.1080 h1         1 YHQ       0.058700
     29 H3         -15.6000     6.4680   -27.4450 h2         1 YHQ       0.117700
     30 H4         -15.6840     6.0190   -23.6790 h5         1 YHQ       0.086800
     31 H5         -12.8260     9.7590   -24.6440 ho         1 YHQ       0.524000
     32 H6         -20.0150     6.6250   -28.3490 h5         1 YHQ       0.038100
     33 H7         -12.5460     7.2670   -26.3800 h1         1 YHQ       0.086700
     34 H8         -11.8270     7.4360   -24.0070 h1         1 YHQ       0.021200
     35 H9         -13.1880     6.4200   -23.5240 h1         1 YHQ       0.021200
     36 H10        -11.9620     2.1460   -22.9920 h1         1 YHQ       0.043700
     37 H11        -12.5320     2.4460   -20.5900 hc         1 YHQ       0.028200
     38 H12        -14.0180     3.2930   -21.0420 hc         1 YHQ       0.028200
     39 H13        -13.8090     1.5900   -21.4500 hc         1 YHQ       0.028200
     40 H14        -14.2770     2.1110   -23.8730 hc         1 YHQ       0.028200
     41 H15        -14.4490     3.8350   -23.5440 hc         1 YHQ       0.028200
     42 H16        -13.2940     3.2720   -24.7570 hc         1 YHQ       0.028200
     43 H17        -14.2740     9.5570   -27.5790 ho         1 YHQ       0.524000
     44 H19        -21.7880     5.3770   -24.4330 hn         1 YHQ       0.502500
     45 H20        -20.4880     5.2660   -23.3010 hn         1 YHQ       0.502500
@<TRIPOS>BOND
     1     1     2 1   
     2     1     7 1   
     3     1    10 1   
     4     1    27 1   
     5     2     3 1   
     6     2    16 1   
     7     2    28 1   
     8     3    15 1   
     9     3    19 1   
    10     3    29 1   
    11     4    19 1   
    12     4    23 2   
    13     4    30 1   
    14     5     6 ar  
    15     5     9 ar  
    16     5    23 1   
    17     6    19 1   
    18     6    24 ar  
    19     7    31 1   
    20     8    21 ar  
    21     8    24 ar  
    22     8    32 1   
    23     9    21 ar  
    24     9    25 1   
    25    10    11 1   
    26    10    15 1   
    27    10    33 1   
    28    11    17 1   
    29    11    34 1   
    30    11    35 1   
    31    12    13 1   
    32    12    14 1   
    33    12    20 1   
    34    12    36 1   
    35    13    37 1   
    36    13    38 1   
    37    13    39 1   
    38    14    40 1   
    39    14    41 1   
    40    14    42 1   
    41    16    43 1   
    42    17    26 1   
    43    18    26 1   
    44    20    26 1   
    45    22    26 1   
    46    25    44 1   
    47    25    45 1   
@<TRIPOS>SUBSTRUCTURE
     1 YHQ         1 TEMP              0 ****  ****    0 ROOT
