@<TRIPOS>MOLECULE
YHR
   84    89     1     0     0
SMALL
abcg2


@<TRIPOS>ATOM
      1 C4         126.6480   124.2250   136.5360 c6         1 YHR       0.155300
      2 C3         126.3500   125.4310   137.4210 c6         1 YHR       0.183300
      3 O2         125.8700   126.5100   136.6530 os         1 YHR      -0.456000
      4 C1         124.4940   126.7890   136.7780 c3         1 YHR       0.153900
      5 C10        130.5020   121.2460   141.2280 c6         1 YHR      -0.037200
      6 C11        130.4900   122.6110   141.8290 cc         1 YHR      -0.128400
      7 C12        129.4630   123.4870   141.6360 cd         1 YHR      -0.106300
      8 C13        128.2190   123.1570   140.8600 c6         1 YHR       0.241700
      9 C14        127.5670   124.3370   140.1420 c6         1 YHR      -0.067400
     10 C15        128.3390   124.7700   138.8970 c6         1 YHR      -0.051700
     11 C16        127.6570   125.8830   138.0780 c6         1 YHR      -0.126700
     12 C17        127.5040   127.1430   138.8980 c          1 YHR       0.604100
     13 C20        126.1370   128.3250   140.4070 c3         1 YHR       0.149900
     14 C22        130.9130   124.5510   142.9620 ca         1 YHR      -0.004200
     15 C23        131.4420   123.2710   142.6720 ca         1 YHR      -0.120800
     16 C24        132.6750   122.9250   143.2200 ca         1 YHR      -0.025000
     17 C25        133.3480   123.8250   144.0300 ca         1 YHR      -0.216000
     18 C26        132.7990   125.0900   144.3070 ca         1 YHR       0.157100
     19 C27        131.5720   125.4660   143.7740 ca         1 YHR      -0.177000
     20 C29        134.6500   125.6970   145.6730 c3         1 YHR       0.150900
     21 C31        125.4000   123.1630   134.8110 c          1 YHR       0.612700
     22 C33        124.0350   122.7890   134.3580 ca         1 YHR      -0.071600
     23 C34        122.8960   123.2370   135.0200 ca         1 YHR      -0.176500
     24 C35        121.6420   122.8640   134.5480 ca         1 YHR       0.141100
     25 C36        121.5340   122.0330   133.4280 ca         1 YHR       0.053100
     26 C37        122.6870   121.5820   132.7760 ca         1 YHR       0.141100
     27 C38        123.9390   121.9740   133.2360 ca         1 YHR      -0.176500
     28 C40        123.6030   120.3170   130.9960 c3         1 YHR       0.144400
     29 C42        119.7700   120.5080   133.5520 c3         1 YHR       0.149900
     30 C44        120.5130   124.1840   136.1580 c3         1 YHR       0.144400
     31 C5         127.2930   123.0920   137.3190 c6         1 YHR      -0.094400
     32 C6         128.5830   123.5620   137.9890 c6         1 YHR      -0.053700
     33 C7         129.2690   122.4590   138.7800 c6         1 YHR       0.166800
     34 C9         129.1120   120.9390   140.6440 c6         1 YHR       0.162800
     35 N21        129.7120   124.6530   142.3200 na         1 YHR      -0.217700
     36 N8         128.4960   122.0560   139.9440 n3         1 YHR      -0.707600
     37 O18        128.3590   127.9900   138.9800 o          1 YHR      -0.481000
     38 O19        126.3580   127.1990   139.5600 os         1 YHR      -0.447100
     39 O28        133.4030   126.0110   145.0950 os         1 YHR      -0.346100
     40 O30        125.3970   123.7990   135.9750 os         1 YHR      -0.445100
     41 O32        126.4000   122.9080   134.1860 o          1 YHR      -0.487000
     42 O39        122.4790   120.7880   131.7140 os         1 YHR      -0.323100
     43 O41        120.3150   121.6800   132.9570 os         1 YHR      -0.329100
     44 O43        120.4790   123.2540   135.0930 os         1 YHR      -0.323100
     45 H1         127.3140   124.5450   135.7280 h1         1 YHR       0.077700
     46 H2         125.6180   125.1410   138.1850 h1         1 YHR       0.064700
     47 H3         124.2920   127.6860   136.1920 h1         1 YHR       0.032033
     48 H4         123.8600   125.9850   136.3960 h1         1 YHR       0.032033
     49 H5         124.2080   126.9870   137.8150 h1         1 YHR       0.032033
     50 H6         130.7480   120.4870   141.9760 hc         1 YHR       0.050700
     51 H7         131.2750   121.1650   140.4560 hc         1 YHR       0.050700
     52 H8         127.4740   122.7890   141.5780 h1         1 YHR       0.070700
     53 H9         127.4590   125.1620   140.8480 hc         1 YHR       0.050200
     54 H10        126.5490   124.0410   139.8810 hc         1 YHR       0.050200
     55 H11        129.3170   125.1520   139.2130 hc         1 YHR       0.071700
     56 H12        128.3550   126.1430   137.2730 hc         1 YHR       0.094700
     57 H13        125.1580   128.1750   140.8540 h1         1 YHR       0.048033
     58 H14        126.8880   128.3840   141.1940 h1         1 YHR       0.048033
     59 H15        126.1370   129.2560   139.8400 h1         1 YHR       0.048033
     60 H16        133.1150   121.9550   143.0210 ha         1 YHR       0.113000
     61 H17        134.3030   123.5350   144.4470 ha         1 YHR       0.115000
     62 H18        131.1530   126.4400   143.9920 ha         1 YHR       0.128000
     63 H19        134.9470   126.5630   146.2590 h1         1 YHR       0.038367
     64 H20        134.5920   124.8290   146.3360 h1         1 YHR       0.038367
     65 H21        135.4190   125.5070   144.9180 h1         1 YHR       0.038367
     66 H22        122.9900   123.8690   135.8900 ha         1 YHR       0.139000
     67 H23        124.8430   121.6440   132.7420 ha         1 YHR       0.139000
     68 H24        123.2140   119.7030   130.1870 h1         1 YHR       0.043700
     69 H25        124.1860   121.1360   130.5670 h1         1 YHR       0.043700
     70 H26        124.2580   119.7040   131.6190 h1         1 YHR       0.043700
     71 H27        118.8040   120.3320   133.0840 h1         1 YHR       0.035700
     72 H28        120.4060   119.6360   133.3810 h1         1 YHR       0.035700
     73 H29        119.6220   120.6300   134.6270 h1         1 YHR       0.035700
     74 H30        119.4780   124.4010   136.4100 h1         1 YHR       0.043700
     75 H31        121.0130   123.7790   137.0410 h1         1 YHR       0.043700
     76 H32        121.0090   125.1150   135.8680 h1         1 YHR       0.043700
     77 H33        126.5890   122.7020   138.0580 hc         1 YHR       0.066200
     78 H34        127.5250   122.2670   136.6410 hc         1 YHR       0.066200
     79 H35        129.2780   123.8670   137.1990 hc         1 YHR       0.056700
     80 H36        129.3990   121.5790   138.1440 h1         1 YHR       0.045200
     81 H37        130.2790   122.8120   139.0410 h1         1 YHR       0.045200
     82 H38        128.4410   120.6440   141.4560 h1         1 YHR       0.055200
     83 H39        129.1730   120.0890   139.9600 h1         1 YHR       0.055200
     84 H40        129.1030   125.4530   142.3600 hn         1 YHR       0.350000
@<TRIPOS>BOND
     1     1     2 1   
     2     1    31 1   
     3     1    40 1   
     4     1    45 1   
     5     2     3 1   
     6     2    11 1   
     7     2    46 1   
     8     3     4 1   
     9     4    47 1   
    10     4    48 1   
    11     4    49 1   
    12     5     6 1   
    13     5    34 1   
    14     5    50 1   
    15     5    51 1   
    16     6     7 2   
    17     6    15 1   
    18     7     8 1   
    19     7    35 1   
    20     8     9 1   
    21     8    36 1   
    22     8    52 1   
    23     9    10 1   
    24     9    53 1   
    25     9    54 1   
    26    10    11 1   
    27    10    32 1   
    28    10    55 1   
    29    11    12 1   
    30    11    56 1   
    31    12    37 2   
    32    12    38 1   
    33    13    38 1   
    34    13    57 1   
    35    13    58 1   
    36    13    59 1   
    37    14    15 ar  
    38    14    19 ar  
    39    14    35 1   
    40    15    16 ar  
    41    16    17 ar  
    42    16    60 1   
    43    17    18 ar  
    44    17    61 1   
    45    18    19 ar  
    46    18    39 1   
    47    19    62 1   
    48    20    39 1   
    49    20    63 1   
    50    20    64 1   
    51    20    65 1   
    52    21    22 1   
    53    21    40 1   
    54    21    41 2   
    55    22    23 ar  
    56    22    27 ar  
    57    23    24 ar  
    58    23    66 1   
    59    24    25 ar  
    60    24    44 1   
    61    25    26 ar  
    62    25    43 1   
    63    26    27 ar  
    64    26    42 1   
    65    27    67 1   
    66    28    42 1   
    67    28    68 1   
    68    28    69 1   
    69    28    70 1   
    70    29    43 1   
    71    29    71 1   
    72    29    72 1   
    73    29    73 1   
    74    30    44 1   
    75    30    74 1   
    76    30    75 1   
    77    30    76 1   
    78    31    32 1   
    79    31    77 1   
    80    31    78 1   
    81    32    33 1   
    82    32    79 1   
    83    33    36 1   
    84    33    80 1   
    85    33    81 1   
    86    34    36 1   
    87    34    82 1   
    88    34    83 1   
    89    35    84 1   
@<TRIPOS>SUBSTRUCTURE
     1 YHR         1 TEMP              0 ****  ****    0 ROOT
