@<TRIPOS>MOLECULE
YHR
   84    89     1     0     0
SMALL
No Charge or Current Charge


@<TRIPOS>ATOM
      1 C4         126.7260   124.3580   136.4780 c6         1 YHR       0.155300
      2 C3         126.4180   125.5670   137.4350 c6         1 YHR       0.183300
      3 O2         125.9070   126.7210   136.7160 os         1 YHR      -0.456000
      4 C1         124.5880   126.6460   136.1400 c3         1 YHR       0.153900
      5 C10        130.5560   121.2300   141.2710 c6         1 YHR      -0.037200
      6 C11        130.4890   122.6000   141.9040 cc         1 YHR      -0.128400
      7 C12        129.4180   123.4650   141.7030 cd         1 YHR      -0.106300
      8 C13        128.1910   123.0810   140.8810 c6         1 YHR       0.241700
      9 C14        127.5070   124.2930   140.1850 c6         1 YHR      -0.067400
     10 C15        128.3440   124.8430   138.9860 c6         1 YHR      -0.051700
     11 C16        127.6970   126.0340   138.1930 c6         1 YHR      -0.126700
     12 C17        127.3800   127.2440   139.0950 c          1 YHR       0.604100
     13 C20        125.8700   128.1930   140.7220 c3         1 YHR       0.149900
     14 C22        130.8900   124.5320   143.0040 ca         1 YHR      -0.004200
     15 C23        131.4240   123.3060   142.7280 ca         1 YHR      -0.120800
     16 C24        132.6770   122.9140   143.2160 ca         1 YHR      -0.025000
     17 C25        133.3900   123.8310   144.0170 ca         1 YHR      -0.216000
     18 C26        132.8380   125.1090   144.3080 ca         1 YHR       0.157100
     19 C27        131.5740   125.4630   143.7950 ca         1 YHR      -0.177000
     20 C29        134.7920   125.7810   145.6580 c3         1 YHR       0.150900
     21 C31        125.5230   123.0650   134.7650 c          1 YHR       0.612700
     22 C33        124.1440   122.5990   134.3270 ca         1 YHR      -0.071600
     23 C34        122.9800   122.9690   135.0350 ca         1 YHR      -0.176500
     24 C35        121.6960   122.5400   134.6250 ca         1 YHR       0.141100
     25 C36        121.5720   121.7100   133.4680 ca         1 YHR       0.053100
     26 C37        122.7390   121.3390   132.7590 ca         1 YHR       0.141100
     27 C38        124.0080   121.7820   133.1870 ca         1 YHR      -0.176500
     28 C40        123.7140   120.0970   130.8440 c3         1 YHR       0.144400
     29 C42        119.0660   121.4790   133.5330 c3         1 YHR       0.149900
     30 C44        120.6270   123.7610   136.5120 c3         1 YHR       0.144400
     31 C5         127.4420   123.2020   137.2280 c6         1 YHR      -0.094400
     32 C6         128.6950   123.6890   138.0040 c6         1 YHR      -0.053700
     33 C7         129.3860   122.5270   138.7650 c6         1 YHR       0.166800
     34 C9         129.2060   120.8570   140.5850 c6         1 YHR       0.162800
     35 N21        129.6510   124.6740   142.4050 na         1 YHR      -0.217700
     36 N8         128.5540   122.0130   139.8950 n3         1 YHR      -0.707600
     37 O18        128.0000   128.2950   139.0030 o          1 YHR      -0.481000
     38 O19        126.2710   127.0890   139.8920 os         1 YHR      -0.447100
     39 O28        133.4970   126.0390   145.0860 os         1 YHR      -0.346100
     40 O30        125.5080   123.8440   135.8950 os         1 YHR      -0.445100
     41 O32        126.5480   122.7820   134.1570 o          1 YHR      -0.487000
     42 O39        122.5960   120.5340   131.6380 os         1 YHR      -0.323100
     43 O41        120.3630   121.2230   132.9650 os         1 YHR      -0.329100
     44 O43        120.5730   122.9230   135.3430 os         1 YHR      -0.323100
     45 H1         127.3790   124.7280   135.6750 h1         1 YHR       0.077700
     46 H2         125.6590   125.2510   138.1650 h1         1 YHR       0.064700
     47 H3         124.2470   127.6470   135.8490 h1         1 YHR       0.032033
     48 H4         124.5820   126.0220   135.2380 h1         1 YHR       0.032033
     49 H5         123.8670   126.2380   136.8600 h1         1 YHR       0.032033
     50 H6         130.8110   120.4650   142.0170 hc         1 YHR       0.050700
     51 H7         131.3610   121.2050   140.5250 hc         1 YHR       0.050700
     52 H8         127.4530   122.6690   141.5870 h1         1 YHR       0.070700
     53 H9         127.3400   125.0750   140.9350 hc         1 YHR       0.050200
     54 H10        126.5090   123.9850   139.8520 hc         1 YHR       0.050200
     55 H11        129.2910   125.2160   139.4020 hc         1 YHR       0.071700
     56 H12        128.4300   126.3890   137.4570 hc         1 YHR       0.094700
     57 H13        124.9790   127.9280   141.3050 h1         1 YHR       0.048033
     58 H14        126.6680   128.4660   141.4240 h1         1 YHR       0.048033
     59 H15        125.6260   129.0730   140.1120 h1         1 YHR       0.048033
     60 H16        133.0860   121.9330   142.9840 ha         1 YHR       0.113000
     61 H17        134.3620   123.5360   144.4000 ha         1 YHR       0.115000
     62 H18        131.1430   126.4370   144.0110 ha         1 YHR       0.128000
     63 H19        135.1310   126.6490   146.2370 h1         1 YHR       0.038367
     64 H20        134.7550   124.9160   146.3320 h1         1 YHR       0.038367
     65 H21        135.5330   125.5850   144.8730 h1         1 YHR       0.038367
     66 H22        123.0880   123.5980   135.9130 ha         1 YHR       0.139000
     67 H23        124.9040   121.4980   132.6430 ha         1 YHR       0.139000
     68 H24        123.3660   119.4730   130.0120 h1         1 YHR       0.043700
     69 H25        124.2520   120.9560   130.4220 h1         1 YHR       0.043700
     70 H26        124.4120   119.5020   131.4460 h1         1 YHR       0.043700
     71 H27        118.2910   120.9760   132.9410 h1         1 YHR       0.035700
     72 H28        119.0040   121.0960   134.5590 h1         1 YHR       0.035700
     73 H29        118.8420   122.5530   133.5330 h1         1 YHR       0.035700
     74 H30        119.6170   123.9290   136.9040 h1         1 YHR       0.043700
     75 H31        121.2240   123.2900   137.3030 h1         1 YHR       0.043700
     76 H32        121.0640   124.7390   136.2720 h1         1 YHR       0.043700
     77 H33        126.7320   122.7150   137.9090 hc         1 YHR       0.066200
     78 H34        127.7480   122.4280   136.5110 hc         1 YHR       0.066200
     79 H35        129.4180   124.0700   137.2690 hc         1 YHR       0.056700
     80 H36        129.6030   121.7160   138.0540 h1         1 YHR       0.045200
     81 H37        130.3570   122.8920   139.1310 h1         1 YHR       0.045200
     82 H38        128.5250   120.4690   141.3580 h1         1 YHR       0.055200
     83 H39        129.3770   120.0300   139.8810 h1         1 YHR       0.055200
     84 H40        129.0350   125.4780   142.4650 hn         1 YHR       0.350000
@<TRIPOS>BOND
     1     1     2 1   
     2     1    31 1   
     3     1    40 1   
     4     1    45 1   
     5     2     3 1   
     6     2    11 1   
     7     2    46 1   
     8     3     4 1   
     9     4    47 1   
    10     4    48 1   
    11     4    49 1   
    12     5     6 1   
    13     5    34 1   
    14     5    50 1   
    15     5    51 1   
    16     6     7 2   
    17     6    15 1   
    18     7     8 1   
    19     7    35 1   
    20     8     9 1   
    21     8    36 1   
    22     8    52 1   
    23     9    10 1   
    24     9    53 1   
    25     9    54 1   
    26    10    11 1   
    27    10    32 1   
    28    10    55 1   
    29    11    12 1   
    30    11    56 1   
    31    12    37 2   
    32    12    38 1   
    33    13    38 1   
    34    13    57 1   
    35    13    58 1   
    36    13    59 1   
    37    14    15 ar  
    38    14    19 ar  
    39    14    35 1   
    40    15    16 ar  
    41    16    17 ar  
    42    16    60 1   
    43    17    18 ar  
    44    17    61 1   
    45    18    19 ar  
    46    18    39 1   
    47    19    62 1   
    48    20    39 1   
    49    20    63 1   
    50    20    64 1   
    51    20    65 1   
    52    21    22 1   
    53    21    40 1   
    54    21    41 2   
    55    22    23 ar  
    56    22    27 ar  
    57    23    24 ar  
    58    23    66 1   
    59    24    25 ar  
    60    24    44 1   
    61    25    26 ar  
    62    25    43 1   
    63    26    27 ar  
    64    26    42 1   
    65    27    67 1   
    66    28    42 1   
    67    28    68 1   
    68    28    69 1   
    69    28    70 1   
    70    29    43 1   
    71    29    71 1   
    72    29    72 1   
    73    29    73 1   
    74    30    44 1   
    75    30    74 1   
    76    30    75 1   
    77    30    76 1   
    78    31    32 1   
    79    31    77 1   
    80    31    78 1   
    81    32    33 1   
    82    32    79 1   
    83    33    36 1   
    84    33    80 1   
    85    33    81 1   
    86    34    36 1   
    87    34    82 1   
    88    34    83 1   
    89    35    84 1   
@<TRIPOS>SUBSTRUCTURE
     1 YHR         1 TEMP              0 ****  ****    0 ROOT
