@<TRIPOS>MOLECULE
YHT
   41    43     1     0     0
SMALL
abcg2


@<TRIPOS>ATOM
      1 C1          15.3170   -24.7430     9.3760 c5         1 YHT       0.085300
      2 C2          16.3640   -25.8490     9.2160 c5         1 YHT       0.097300
      3 C3          16.4830   -25.9280     7.6940 c5         1 YHT       0.315300
      4 C4          17.4040   -23.8950     6.4570 cc         1 YHT       0.439700
      5 C5          19.4800   -24.2540     6.5920 ca         1 YHT      -0.092600
      6 C6          18.8690   -25.2970     7.2700 ca         1 YHT       0.107500
      7 C12         15.4730   -22.0230     3.7310 c1         1 YHT      -0.113100
      8 C13         16.5190   -21.4730     3.5180 c1         1 YHT      -0.295000
      9 C11         14.2040   -22.7010     3.9770 c3         1 YHT       0.290700
     10 C7          20.7910   -26.2410     7.7510 ca         1 YHT       0.165900
     11 C8          20.8860   -24.2900     6.5340 ca         1 YHT       0.443900
     12 C9          14.4070   -24.9890     8.1740 c5         1 YHT       0.156300
     13 N1          17.5310   -25.0490     7.1800 na         1 YHT      -0.306300
     14 N2          18.5450   -23.3880     6.0920 nd         1 YHT      -0.567100
     15 N3          19.4770   -26.3190     7.8700 nb         1 YHT      -0.215000
     16 N4          21.5120   -25.3090     7.1330 nb         1 YHT      -0.315000
     17 N5          21.6070   -23.3540     5.9140 nv         1 YHT      -1.072900
     18 O1          14.5820   -24.8320    10.5650 oh         1 YHT      -0.705000
     19 O2          15.2570   -25.5330     7.1670 os         1 YHT      -0.418000
     20 O3          15.8680   -27.0790     9.6670 oh         1 YHT      -0.707000
     21 O5          11.6790   -21.8070     6.6810 o          1 YHT      -0.804500
     22 O6          13.5410   -22.0550     5.0410 os         1 YHT      -0.591400
     23 O7          11.4340   -23.4760     4.6540 o          1 YHT      -0.804500
     24 P1          12.2350   -22.8060     5.7220 p5         1 YHT       1.387800
     25 H1          15.8080   -23.7650     9.2790 h1         1 YHT       0.057700
     26 H2          17.3200   -25.5960     9.6900 h1         1 YHT       0.067700
     27 H3          16.7310   -26.9440     7.3700 h2         1 YHT       0.112700
     28 H4          16.4420   -23.4710     6.2180 h5         1 YHT       0.100800
     29 H5          17.4490   -20.9850     3.3330 ha         1 YHT       0.237000
     30 H6          14.5010   -22.9730     7.4630 h1         1 YHT       0.031200
     31 H7          13.1200   -23.3350     8.4960 h1         1 YHT       0.031200
     32 H8          13.6050   -22.6830     3.0610 h1         1 YHT       0.041700
     33 H9          14.4110   -23.7540     4.1980 h1         1 YHT       0.041700
     34 H10         21.3610   -27.0400     8.2140 h5         1 YHT       0.036100
     35 H11         13.6430   -25.7320     8.4330 h1         1 YHT       0.088700
     36 H12         22.6070   -23.4380     5.8600 hn         1 YHT       0.502500
     37 H13         21.1630   -22.6020     5.4160 hn         1 YHT       0.502500
     38 H14         15.0570   -24.3710    11.2640 ho         1 YHT       0.507000
     39 H15         15.3180   -26.9050    10.4420 ho         1 YHT       0.521000
     40 C10         13.7380   -23.7290     7.6820 c3         1 YHT       0.224600
     41 O4          12.9630   -24.0320     6.5440 os         1 YHT      -0.584400
@<TRIPOS>BOND
     1     1     2 1   
     2     1    12 1   
     3     1    18 1   
     4     1    25 1   
     5     2     3 1   
     6     2    20 1   
     7     2    26 1   
     8     3    13 1   
     9     3    19 1   
    10     3    27 1   
    11     4    13 1   
    12     4    14 2   
    13     4    28 1   
    14     5     6 ar  
    15     5    11 ar  
    16     5    14 1   
    17     6    13 1   
    18     6    15 ar  
    19     7     8 3   
    20     7     9 1   
    21     8    29 1   
    22     9    22 1   
    23     9    32 1   
    24     9    33 1   
    25    10    15 ar  
    26    10    16 ar  
    27    10    34 1   
    28    11    16 ar  
    29    11    17 1   
    30    12    19 1   
    31    12    35 1   
    32    12    40 1   
    33    17    36 1   
    34    17    37 1   
    35    18    38 1   
    36    20    39 1   
    37    21    24 1   
    38    22    24 1   
    39    23    24 1   
    40    24    41 1   
    41    30    40 1   
    42    31    40 1   
    43    40    41 1   
@<TRIPOS>SUBSTRUCTURE
     1 YHT         1 TEMP              0 ****  ****    0 ROOT
