@<TRIPOS>MOLECULE
YHT
   41    43     1     0     0
SMALL
No Charge or Current Charge


@<TRIPOS>ATOM
      1 C1          14.8830   -24.2040     9.6040 c5         1 YHT       0.085300
      2 C2          16.0720   -25.1970     9.7610 c5         1 YHT       0.097300
      3 C3          16.5490   -25.3410     8.2630 c5         1 YHT       0.315300
      4 C4          18.2110   -23.4060     8.4150 cc         1 YHT       0.439700
      5 C5          19.5930   -23.9940     6.8710 ca         1 YHT      -0.092600
      6 C6          18.6250   -24.9660     6.8780 ca         1 YHT       0.107500
      7 C12         16.4240   -23.4800     4.1110 c1         1 YHT      -0.113100
      8 C13         17.5470   -23.0400     3.9980 c1         1 YHT      -0.295000
      9 C11         15.0530   -24.0040     4.2130 c3         1 YHT       0.290700
     10 C7          19.6960   -26.0430     5.1670 ca         1 YHT       0.165900
     11 C8          20.6450   -24.1090     5.9390 ca         1 YHT       0.443900
     12 C9          14.2820   -24.7300     8.2700 c5         1 YHT       0.156300
     13 N1          17.7470   -24.6040     7.8580 na         1 YHT      -0.306300
     14 N2          19.3560   -23.0030     7.8290 nd         1 YHT      -0.567100
     15 N3          18.6530   -26.0150     6.0310 nb         1 YHT      -0.215000
     16 N4          20.7000   -25.1370     5.0760 nb         1 YHT      -0.315000
     17 N5          21.6500   -23.1980     5.8460 nv         1 YHT      -1.072900
     18 O1          13.9790   -24.2920    10.7210 oh         1 YHT      -0.705000
     19 O2          15.4510   -24.8870     7.4360 os         1 YHT      -0.418000
     20 O3          15.5750   -26.4230    10.3200 oh         1 YHT      -0.707000
     21 O5          11.9010   -22.1360     5.4460 o          1 YHT      -0.804500
     22 O6          14.2290   -23.0050     4.8150 os         1 YHT      -0.591400
     23 O7          12.0790   -24.0590     3.9060 o          1 YHT      -0.804500
     24 P1          12.6810   -23.3530     5.0760 p5         1 YHT       1.387800
     25 H1          15.2460   -23.1730     9.4750 h1         1 YHT       0.057700
     26 H2          16.8620   -24.7830    10.4030 h1         1 YHT       0.067700
     27 H3          16.7610   -26.3970     8.0520 h2         1 YHT       0.112700
     28 H4          17.6910   -22.8920     9.2160 h5         1 YHT       0.100800
     29 H5          18.5430   -22.6540     3.9140 ha         1 YHT       0.237000
     30 H6          13.6770   -22.7920     7.5040 h1         1 YHT       0.031200
     31 H7          12.3630   -23.7090     8.2710 h1         1 YHT       0.031200
     32 H8          14.6970   -24.2550     3.2050 h1         1 YHT       0.041700
     33 H9          15.0660   -24.9240     4.8130 h1         1 YHT       0.041700
     34 H10         19.7310   -26.8810     4.4730 h5         1 YHT       0.036100
     35 H11         13.8160   -25.7150     8.4100 h1         1 YHT       0.088700
     36 H12         22.1980   -23.1770     4.9900 hn         1 YHT       0.502500
     37 H13         21.5170   -22.3130     6.3280 hn         1 YHT       0.502500
     38 H14         14.1080   -23.4850    11.2770 ho         1 YHT       0.507000
     39 H15         14.7610   -26.1360    10.8080 ho         1 YHT       0.521000
     40 C10         13.2360   -23.7930     7.6100 c3         1 YHT       0.224600
     41 O4          12.8480   -24.3390     6.3390 os         1 YHT      -0.584400
@<TRIPOS>BOND
     1     1     2 1   
     2     1    12 1   
     3     1    18 1   
     4     1    25 1   
     5     2     3 1   
     6     2    20 1   
     7     2    26 1   
     8     3    13 1   
     9     3    19 1   
    10     3    27 1   
    11     4    13 1   
    12     4    14 2   
    13     4    28 1   
    14     5     6 ar  
    15     5    11 ar  
    16     5    14 1   
    17     6    13 1   
    18     6    15 ar  
    19     7     8 3   
    20     7     9 1   
    21     8    29 1   
    22     9    22 1   
    23     9    32 1   
    24     9    33 1   
    25    10    15 ar  
    26    10    16 ar  
    27    10    34 1   
    28    11    16 ar  
    29    11    17 1   
    30    12    19 1   
    31    12    35 1   
    32    12    40 1   
    33    17    36 1   
    34    17    37 1   
    35    18    38 1   
    36    20    39 1   
    37    21    24 1   
    38    22    24 1   
    39    23    24 1   
    40    24    41 1   
    41    30    40 1   
    42    31    40 1   
    43    40    41 1   
@<TRIPOS>SUBSTRUCTURE
     1 YHT         1 TEMP              0 ****  ****    0 ROOT
