@<TRIPOS>MOLECULE
YHU
   22    22     1     0     0
SMALL
No Charge or Current Charge


@<TRIPOS>ATOM
      1 C1          -7.5270    -8.0150   -15.1380 c3         1 YHU      -0.105600
      2 C2          -7.4620    -8.2960   -16.6510 c3         1 YHU       0.111700
      3 C3          -7.8480    -7.0610   -17.4900 c3         1 YHU      -0.105600
      4 N1          -6.1310    -8.7770   -17.0180 ns         1 YHU      -0.492900
      5 C4          -5.8450    -9.6130   -18.0780 c          1 YHU       0.538600
      6 O1          -6.7210   -10.0510   -18.8180 o          1 YHU      -0.629100
      7 C5          -4.3770    -9.9150   -18.2090 cc         1 YHU       0.171500
      8 C6          -3.8760   -10.7250   -19.1940 cd         1 YHU      -0.144000
      9 N2          -2.5060   -10.7480   -18.9740 na         1 YHU      -0.311500
     10 C7          -2.2390    -9.9560   -17.8720 cd         1 YHU       0.396400
     11 N3          -3.3660    -9.4430   -17.3960 nc         1 YHU      -0.675000
     12 H1          -7.2800    -8.9180   -14.5670 hc         1 YHU       0.040700
     13 H2          -6.8220    -7.2240   -14.8560 hc         1 YHU       0.040700
     14 H3          -8.5360    -7.6960   -14.8490 hc         1 YHU       0.040700
     15 H4          -8.1860    -9.0940   -16.8710 h1         1 YHU       0.076700
     16 H5          -8.8580    -6.7210   -17.2330 hc         1 YHU       0.040700
     17 H6          -7.1490    -6.2350   -17.3130 hc         1 YHU       0.040700
     18 H7          -7.8340    -7.3000   -18.5600 hc         1 YHU       0.040700
     19 H8          -5.3300    -8.4770   -16.4720 hn         1 YHU       0.332500
     20 H9          -4.3760   -11.2590   -19.9960 h4         1 YHU       0.176000
     21 H10         -1.8090   -11.2490   -19.5120 hn         1 YHU       0.357000
     22 H11         -1.2360    -9.8060   -17.4890 h5         1 YHU       0.060100
@<TRIPOS>BOND
     1     1     2 1   
     2     1    12 1   
     3     1    13 1   
     4     1    14 1   
     5     2     3 1   
     6     2     4 1   
     7     2    15 1   
     8     3    16 1   
     9     3    17 1   
    10     3    18 1   
    11     4     5 1   
    12     4    19 1   
    13     5     6 2   
    14     5     7 1   
    15     7     8 2   
    16     7    11 1   
    17     8     9 1   
    18     8    20 1   
    19     9    10 1   
    20     9    21 1   
    21    10    11 2   
    22    10    22 1   
@<TRIPOS>SUBSTRUCTURE
     1 YHU         1 TEMP              0 ****  ****    0 ROOT
