@<TRIPOS>MOLECULE
YHU
   22    22     1     0     0
SMALL
abcg2


@<TRIPOS>ATOM
      1 C1          -7.5670    -8.0950   -15.1760 c3         1 YHU      -0.105600
      2 C2          -7.4500    -8.2830   -16.6840 c3         1 YHU       0.111700
      3 C3          -7.7550    -6.9940   -17.4490 c3         1 YHU      -0.105600
      4 N1          -6.1180    -8.7780   -17.0150 ns         1 YHU      -0.492900
      5 C4          -5.8630    -9.6670   -17.9920 c          1 YHU       0.538600
      6 O1          -6.7420   -10.2220   -18.6650 o          1 YHU      -0.629100
      7 C5          -4.4310    -9.9510   -18.2090 cc         1 YHU       0.171500
      8 C6          -3.8910   -10.8210   -19.1250 cd         1 YHU      -0.144000
      9 N2          -2.5390   -10.7350   -18.9530 na         1 YHU      -0.311500
     10 C7          -2.2990    -9.8370   -17.9600 cd         1 YHU       0.396400
     11 N3          -3.4200    -9.3430   -17.4880 nc         1 YHU      -0.675000
     12 H1          -7.3910    -9.0350   -14.6510 hc         1 YHU       0.040700
     13 H2          -6.8390    -7.3590   -14.8220 hc         1 YHU       0.040700
     14 H3          -8.5630    -7.7340   -14.9190 hc         1 YHU       0.040700
     15 H4          -8.1480    -9.0560   -17.0060 h1         1 YHU       0.076700
     16 H5          -8.7700    -6.6550   -17.2330 hc         1 YHU       0.040700
     17 H6          -7.0590    -6.2040   -17.1570 hc         1 YHU       0.040700
     18 H7          -7.6660    -7.1540   -18.5250 hc         1 YHU       0.040700
     19 H8          -5.3180    -8.3540   -16.5650 hn         1 YHU       0.332500
     20 H9          -4.3430   -11.4660   -19.8570 h4         1 YHU       0.176000
     21 H10         -1.8410   -11.2480   -19.4710 hn         1 YHU       0.357000
     22 H11         -1.3020    -9.5890   -17.6330 h5         1 YHU       0.060100
@<TRIPOS>BOND
     1     1     2 1   
     2     1    12 1   
     3     1    13 1   
     4     1    14 1   
     5     2     3 1   
     6     2     4 1   
     7     2    15 1   
     8     3    16 1   
     9     3    17 1   
    10     3    18 1   
    11     4     5 1   
    12     4    19 1   
    13     5     6 2   
    14     5     7 1   
    15     7     8 2   
    16     7    11 1   
    17     8     9 1   
    18     8    20 1   
    19     9    10 1   
    20     9    21 1   
    21    10    11 2   
    22    10    22 1   
@<TRIPOS>SUBSTRUCTURE
     1 YHU         1 TEMP              0 ****  ****    0 ROOT
