@<TRIPOS>MOLECULE
YHV
   62    65     1     0     0
SMALL
abcg2


@<TRIPOS>ATOM
      1 C4          -7.7630    32.6560     9.7050 c5         1 YHV      -0.078400
      2 C5          -7.1080    31.2700     9.6970 c5         1 YHV       0.154800
      3 C7          -7.5600    31.7240     7.4710 c5         1 YHV       0.135800
      4 C8          -6.1690    29.7580     7.9930 c6         1 YHV       0.192500
      5 C10         -5.1710    28.2580     6.2100 c6         1 YHV      -0.071400
      6 C13         -5.1150    29.2370     8.9750 c6         1 YHV      -0.088400
      7 C15         -3.5190    26.1610    10.0690 c          1 YHV       0.630300
      8 C17         -2.4110    25.9170    11.0160 cc         1 YHV      -0.145300
      9 C20          0.4370    26.1440    13.2650 ca         1 YHV       0.215000
     10 C21          1.0140    25.1130    13.9610 ca         1 YHV      -0.177000
     11 C22          0.4880    23.8090    13.8370 ca         1 YHV      -0.063000
     12 C24         -1.1570    24.5990    12.3360 ca         1 YHV      -0.012200
     13 N2          -9.2370    33.5940     7.8940 n3         1 YHV      -0.762500
     14 C3          -7.9200    33.0190     8.2100 c5         1 YHV       0.214500
     15 N6          -6.5480    31.1290     8.3430 n3         1 YHV      -0.719600
     16 C9          -5.6410    29.6710     6.5590 c6         1 YHV      -0.078400
     17 C11         -4.1120    27.7580     7.1890 c6         1 YHV      -0.093400
     18 C12         -4.6380    27.8290     8.6230 c6         1 YHV       0.112700
     19 N14         -3.6270    27.4110     9.5860 ns         1 YHV      -0.490900
     20 O16         -4.2890    25.2400     9.7670 o          1 YHV      -0.626100
     21 C18         -1.4690    26.7470    11.5860 cd         1 YHV      -0.177200
     22 C19         -0.6610    25.9280    12.4290 ca         1 YHV      -0.147800
     23 C23         -0.5990    23.5140    13.0310 ca         1 YHV      -0.106300
     24 N25         -2.2170    24.6330    11.4720 na         1 YHV      -0.188700
     25 F27          0.9350    27.4040    13.3800 f          1 YHV      -0.181000
     26 S28         -9.3100    34.8920     6.9000 s6         1 YHV       1.241100
     27 O29        -10.6460    35.4380     7.0050 o          1 YHV      -0.540000
     28 O30         -8.1890    35.7520     7.2140 o          1 YHV      -0.540000
     29 C31         -9.0950    34.3090     5.2340 c3         1 YHV      -0.384100
     30 H1          -7.1420    33.3960    10.2060 hc         1 YHV       0.063200
     31 H2          -8.7260    32.6380    10.2130 hc         1 YHV       0.063200
     32 H3          -7.8620    30.4880     9.8870 h1         1 YHV       0.042200
     33 H4          -6.3320    31.1750    10.4540 h1         1 YHV       0.042200
     34 H5          -8.4410    31.0700     7.3720 h1         1 YHV       0.041200
     35 H6          -7.1680    31.9180     6.4750 h1         1 YHV       0.041200
     36 H7          -7.0590    29.1040     8.0690 h1         1 YHV       0.022700
     37 H8          -6.0290    27.5760     6.2250 hc         1 YHV       0.046200
     38 H9          -4.7770    28.2420     5.1920 hc         1 YHV       0.046200
     39 H10         -4.2610    29.9230     8.9650 hc         1 YHV       0.053700
     40 H11         -5.5090    29.2230     9.9910 hc         1 YHV       0.053700
     41 H12          1.8650    25.3060    14.6010 ha         1 YHV       0.132000
     42 H13          0.9570    23.0090    14.3960 ha         1 YHV       0.117000
     43 H14         -1.1460    21.7940    11.8570 hc         1 YHV       0.044033
     44 H15         -0.5980    21.4200    13.4970 hc         1 YHV       0.044033
     45 H16         -2.2090    22.0970    13.2250 hc         1 YHV       0.044033
     46 H20         -7.1860    33.7760     7.9550 h1         1 YHV       0.092700
     47 H22         -4.8080    30.3740     6.4540 hc         1 YHV       0.048700
     48 H23         -6.4130    29.9780     5.8530 hc         1 YHV       0.048700
     49 H24         -3.8200    26.7320     6.9580 hc         1 YHV       0.051200
     50 H25         -3.2140    28.3800     7.1150 hc         1 YHV       0.051200
     51 H26         -5.4700    27.1310     8.7260 h1         1 YHV       0.080700
     52 H27         -2.9180    28.0850     9.8330 hn         1 YHV       0.318500
     53 H28         -1.3650    27.8080    11.4330 ha         1 YHV       0.209000
     54 H29         -2.7940    23.8560    11.1880 hn         1 YHV       0.374000
     55 H30         -9.8680    33.5730     5.0200 h1         1 YHV       0.099367
     56 H31         -9.1950    35.1690     4.5730 h1         1 YHV       0.099367
     57 H32         -8.1040    33.8700     5.1460 h1         1 YHV       0.099367
     58 C1         -10.4120    32.7170     7.9490 c3         1 YHV       0.188100
     59 C26         -1.1660    22.1300    12.8980 c3         1 YHV      -0.041800
     60 H17        -10.3090    32.0690     8.8160 h1         1 YHV       0.052367
     61 H18        -11.3090    33.3180     8.0700 h1         1 YHV       0.052367
     62 H19        -10.5110    32.0920     7.0580 h1         1 YHV       0.052367
@<TRIPOS>BOND
     1     1     2 1   
     2     1    14 1   
     3     1    30 1   
     4     1    31 1   
     5     2    15 1   
     6     2    32 1   
     7     2    33 1   
     8     3    14 1   
     9     3    15 1   
    10     3    34 1   
    11     3    35 1   
    12     4     6 1   
    13     4    15 1   
    14     4    16 1   
    15     4    36 1   
    16     5    16 1   
    17     5    17 1   
    18     5    37 1   
    19     5    38 1   
    20     6    18 1   
    21     6    39 1   
    22     6    40 1   
    23     7     8 1   
    24     7    19 1   
    25     7    20 2   
    26     8    21 2   
    27     8    24 1   
    28     9    10 ar  
    29     9    22 ar  
    30     9    25 1   
    31    10    11 ar  
    32    10    41 1   
    33    11    23 ar  
    34    11    42 1   
    35    12    22 ar  
    36    12    23 ar  
    37    12    24 1   
    38    13    14 1   
    39    13    26 1   
    40    13    58 1   
    41    14    46 1   
    42    16    47 1   
    43    16    48 1   
    44    17    18 1   
    45    17    49 1   
    46    17    50 1   
    47    18    19 1   
    48    18    51 1   
    49    19    52 1   
    50    21    22 1   
    51    21    53 1   
    52    23    59 1   
    53    24    54 1   
    54    26    27 2   
    55    26    28 2   
    56    26    29 1   
    57    29    55 1   
    58    29    56 1   
    59    29    57 1   
    60    43    59 1   
    61    44    59 1   
    62    45    59 1   
    63    58    60 1   
    64    58    61 1   
    65    58    62 1   
@<TRIPOS>SUBSTRUCTURE
     1 YHV         1 TEMP              0 ****  ****    0 ROOT
