@<TRIPOS>MOLECULE
YHV
   62    65     1     0     0
SMALL
No Charge or Current Charge


@<TRIPOS>ATOM
      1 C4          -7.2710    33.0510     9.6480 c5         1 YHV      -0.078400
      2 C5          -7.0440    31.5190     9.5960 c5         1 YHV       0.154800
      3 C7          -7.2430    32.1090     7.3670 c5         1 YHV       0.135800
      4 C8          -5.9860    29.9750     7.8880 c6         1 YHV       0.192500
      5 C10         -4.8650    28.5310     6.0720 c6         1 YHV      -0.071400
      6 C13         -5.0550    29.2960     8.9370 c6         1 YHV      -0.088400
      7 C15         -3.5940    25.9210     9.7560 c          1 YHV       0.630300
      8 C17         -2.6170    25.5900    10.8290 cc         1 YHV      -0.145300
      9 C20         -0.1400    26.2200    13.5120 ca         1 YHV       0.215000
     10 C21          0.5380    25.2500    14.2750 ca         1 YHV      -0.177000
     11 C22          0.2990    23.8720    14.0500 ca         1 YHV      -0.063000
     12 C24         -1.2780    24.4500    12.3170 ca         1 YHV      -0.012200
     13 N2          -9.0640    33.7420     8.0170 n3         1 YHV      -0.762500
     14 C3          -7.5990    33.4130     8.1650 c5         1 YHV       0.214500
     15 N6          -6.3450    31.3670     8.2960 n3         1 YHV      -0.719600
     16 C9          -5.2930    29.9570     6.4910 c6         1 YHV      -0.078400
     17 C11         -3.9540    27.8850     7.1400 c6         1 YHV      -0.093400
     18 C12         -4.6540    27.8580     8.5200 c6         1 YHV       0.112700
     19 N14         -3.7700    27.2670     9.5320 ns         1 YHV      -0.490900
     20 O16         -4.2000    25.0700     9.1180 o          1 YHV      -0.626100
     21 C18         -1.8830    26.4880    11.6050 cd         1 YHV      -0.177200
     22 C19         -1.0440    25.7770    12.5380 ca         1 YHV      -0.147800
     23 C23         -0.6210    23.4520    13.0590 ca         1 YHV      -0.106300
     24 N25         -2.2140    24.3190    11.3010 na         1 YHV      -0.188700
     25 F27          0.0760    27.5380    13.7140 f          1 YHV      -0.181000
     26 S28         -9.5620    34.6210     6.6190 s6         1 YHV       1.241100
     27 O29        -10.7000    35.4520     7.0230 o          1 YHV      -0.540000
     28 O30         -8.3600    35.2640     6.0790 o          1 YHV      -0.540000
     29 C31        -10.0840    33.3780     5.4460 c3         1 YHV      -0.384100
     30 H1          -6.3480    33.5530     9.9570 hc         1 YHV       0.063200
     31 H2          -8.0390    33.3510    10.3690 hc         1 YHV       0.063200
     32 H3          -7.9940    30.9650     9.6100 h1         1 YHV       0.042200
     33 H4          -6.4420    31.1850    10.4520 h1         1 YHV       0.042200
     34 H5          -8.1290    31.5070     7.1290 h1         1 YHV       0.041200
     35 H6          -6.7510    32.3590     6.4180 h1         1 YHV       0.041200
     36 H7          -6.9060    29.3750     7.8150 h1         1 YHV       0.022700
     37 H8          -5.7560    27.9060     5.9180 hc         1 YHV       0.046200
     38 H9          -4.3400    28.5680     5.1070 hc         1 YHV       0.046200
     39 H10         -4.1560    29.9100     9.0830 hc         1 YHV       0.053700
     40 H11         -5.5590    29.2390     9.9100 hc         1 YHV       0.053700
     41 H12          1.2450    25.5640    15.0380 ha         1 YHV       0.132000
     42 H13          0.8300    23.1330    14.6480 ha         1 YHV       0.117000
     43 H14         -0.6360    21.7000    11.7750 hc         1 YHV       0.044033
     44 H15         -0.2920    21.3360    13.4710 hc         1 YHV       0.044033
     45 H16         -1.9430    21.7310    12.9730 hc         1 YHV       0.044033
     46 H20         -6.9530    34.2470     7.8560 h1         1 YHV       0.092700
     47 H22         -4.4150    30.6170     6.5060 hc         1 YHV       0.048700
     48 H23         -5.9680    30.3530     5.7220 hc         1 YHV       0.048700
     49 H24         -3.6930    26.8640     6.8310 hc         1 YHV       0.051200
     50 H25         -3.0090    28.4430     7.2080 hc         1 YHV       0.051200
     51 H26         -5.5650    27.2430     8.4500 h1         1 YHV       0.080700
     52 H27         -3.2250    27.8910    10.1110 hn         1 YHV       0.318500
     53 H28         -1.9250    27.5720    11.5320 ha         1 YHV       0.209000
     54 H29         -2.5610    23.4340    10.9450 hn         1 YHV       0.374000
     55 H30        -10.9570    32.8640     5.8600 h1         1 YHV       0.099367
     56 H31        -10.3410    33.8980     4.5180 h1         1 YHV       0.099367
     57 H32         -9.2470    32.6910     5.2930 h1         1 YHV       0.099367
     58 C1         -10.0690    32.7560     8.5020 c3         1 YHV       0.188100
     59 C26         -0.8870    21.9740    12.8070 c3         1 YHV      -0.041800
     60 H17         -9.8410    32.3980     9.5130 h1         1 YHV       0.052367
     61 H18        -11.0680    33.2100     8.5470 h1         1 YHV       0.052367
     62 H19        -10.1300    31.8810     7.8430 h1         1 YHV       0.052367
@<TRIPOS>BOND
     1     1     2 1   
     2     1    14 1   
     3     1    30 1   
     4     1    31 1   
     5     2    15 1   
     6     2    32 1   
     7     2    33 1   
     8     3    14 1   
     9     3    15 1   
    10     3    34 1   
    11     3    35 1   
    12     4     6 1   
    13     4    15 1   
    14     4    16 1   
    15     4    36 1   
    16     5    16 1   
    17     5    17 1   
    18     5    37 1   
    19     5    38 1   
    20     6    18 1   
    21     6    39 1   
    22     6    40 1   
    23     7     8 1   
    24     7    19 1   
    25     7    20 2   
    26     8    21 2   
    27     8    24 1   
    28     9    10 ar  
    29     9    22 ar  
    30     9    25 1   
    31    10    11 ar  
    32    10    41 1   
    33    11    23 ar  
    34    11    42 1   
    35    12    22 ar  
    36    12    23 ar  
    37    12    24 1   
    38    13    14 1   
    39    13    26 1   
    40    13    58 1   
    41    14    46 1   
    42    16    47 1   
    43    16    48 1   
    44    17    18 1   
    45    17    49 1   
    46    17    50 1   
    47    18    19 1   
    48    18    51 1   
    49    19    52 1   
    50    21    22 1   
    51    21    53 1   
    52    23    59 1   
    53    24    54 1   
    54    26    27 2   
    55    26    28 2   
    56    26    29 1   
    57    29    55 1   
    58    29    56 1   
    59    29    57 1   
    60    43    59 1   
    61    44    59 1   
    62    45    59 1   
    63    58    60 1   
    64    58    61 1   
    65    58    62 1   
@<TRIPOS>SUBSTRUCTURE
     1 YHV         1 TEMP              0 ****  ****    0 ROOT
