@<TRIPOS>MOLECULE
YHX
   20    21     1     0     0
SMALL
No Charge or Current Charge


@<TRIPOS>ATOM
      1 O01         -2.9020     0.6570     0.8900 o          1 YHX      -0.392500
      2 N02         -2.5240    -0.0950    -0.0170 no         1 YHX       0.702200
      3 O03         -3.2940    -0.6910    -0.7800 o          1 YHX      -0.392500
      4 C04         -1.0970    -0.5210    -0.0120 ca         1 YHX      -0.202200
      5 C05         -0.8220    -1.9030     0.0230 ca         1 YHX      -0.005000
      6 C06          0.5070    -2.3460     0.0560 ca         1 YHX      -0.259000
      7 N07          1.5650    -1.4510     0.0630 na         1 YHX       0.504300
      8 O08          2.7210    -1.8920     0.1280 o          1 YHX      -0.460000
      9 C09          1.3160    -0.0680    -0.0020 ca         1 YHX      -0.107300
     10 C10         -0.0220     0.4100    -0.0410 ca         1 YHX       0.036000
     11 C11         -0.2480     1.8060    -0.1320 ca         1 YHX      -0.102000
     12 C12          0.8260     2.7080    -0.1630 ca         1 YHX      -0.069000
     13 C13          2.1430     2.2350    -0.1110 ca         1 YHX      -0.107000
     14 C14          2.3890     0.8560    -0.0340 ca         1 YHX      -0.059000
     15 H05         -1.6330    -2.6310     0.0370 ha         1 YHX       0.165000
     16 H06          0.7590    -3.4050     0.0890 h4         1 YHX       0.179000
     17 H14          3.4220     0.5110    -0.0020 ha         1 YHX       0.159000
     18 H11         -1.2530     2.2140    -0.1900 ha         1 YHX       0.150000
     19 H12          0.6360     3.7780    -0.2320 ha         1 YHX       0.129000
     20 H13          2.9750     2.9360    -0.1370 ha         1 YHX       0.130000
@<TRIPOS>BOND
     1     1     2 1   
     2     2     3 1   
     3     2     4 1   
     4     4     5 ar  
     5     4    10 ar  
     6     5     6 ar  
     7     5    15 1   
     8     6     7 1   
     9     6    16 1   
    10     7     8 1   
    11     7     9 2   
    12     9    10 ar  
    13     9    14 ar  
    14    10    11 ar  
    15    11    12 ar  
    16    11    18 1   
    17    12    13 ar  
    18    12    19 1   
    19    13    14 ar  
    20    13    20 1   
    21    14    17 1   
@<TRIPOS>SUBSTRUCTURE
     1 YHX         1 TEMP              0 ****  ****    0 ROOT
