@<TRIPOS>MOLECULE
YHX
   20    21     1     0     0
SMALL
bcc


@<TRIPOS>ATOM
      1 O01         -2.8310     0.8350     0.6080 o          1 YHX      -0.202500
      2 N02         -2.5110    -0.1720     0.0200 no         1 YHX       0.322200
      3 O03         -3.2930    -0.9210    -0.5180 o          1 YHX      -0.202500
      4 C04         -1.1090    -0.5300    -0.0160 ca         1 YHX      -0.202200
      5 C05         -0.8080    -1.8630    -0.0150 ca         1 YHX      -0.023000
      6 C06          0.5110    -2.2850     0.0290 ca         1 YHX      -0.226300
      7 N07          1.5250    -1.4160     0.0510 na         1 YHX       0.263600
      8 O08          2.7120    -1.8170     0.1050 o          1 YHX      -0.270000
      9 C09          1.2610    -0.0440     0.0060 ca         1 YHX      -0.107300
     10 C10         -0.0700     0.4390    -0.0230 ca         1 YHX       0.036000
     11 C11         -0.2460     1.8400    -0.1120 ca         1 YHX      -0.120000
     12 C12          0.8340     2.6810    -0.1470 ca         1 YHX      -0.087000
     13 C13          2.1430     2.1790    -0.0900 ca         1 YHX      -0.125000
     14 C14          2.3580     0.8300    -0.0190 ca         1 YHX      -0.077000
     15 H05         -1.5770    -2.6210    -0.0180 ha         1 YHX       0.183000
     16 H06          0.7830    -3.3290     0.0580 h4         1 YHX       0.197000
     17 H14          3.3610     0.4310     0.0120 ha         1 YHX       0.177000
     18 H11         -1.2350     2.2630    -0.1660 ha         1 YHX       0.168000
     19 H12          0.6720     3.7470    -0.2200 ha         1 YHX       0.147000
     20 H13          2.9840     2.8580    -0.1130 ha         1 YHX       0.148000
@<TRIPOS>BOND
     1     1     2 1   
     2     2     3 1   
     3     2     4 1   
     4     4     5 ar  
     5     4    10 ar  
     6     5     6 ar  
     7     5    15 1   
     8     6     7 1   
     9     6    16 1   
    10     7     8 1   
    11     7     9 2   
    12     9    10 ar  
    13     9    14 ar  
    14    10    11 ar  
    15    11    12 ar  
    16    11    18 1   
    17    12    13 ar  
    18    12    19 1   
    19    13    14 ar  
    20    13    20 1   
    21    14    17 1   
@<TRIPOS>SUBSTRUCTURE
     1 YHX         1 TEMP              0 ****  ****    0 ROOT
