@<TRIPOS>MOLECULE
YHY
   56    59     1     0     0
SMALL
abcg2


@<TRIPOS>ATOM
      1 C1         -10.5680    35.5870     8.9120 c3         1 YHY       0.149100
      2 N2          -9.5900    34.9670     9.7860 n3         1 YHY      -0.710600
      3 C3          -9.9610    35.2080    11.1680 c3         1 YHY       0.149100
      4 C4          -9.4140    33.5470     9.4980 c6         1 YHY       0.184500
      5 C5          -8.3850    32.8990    10.4200 c6         1 YHY      -0.081900
      6 C6          -8.1660    31.4360    10.0730 c6         1 YHY       0.199300
      7 C8          -8.6960    31.8470     7.7610 c6         1 YHY       0.199300
      8 N7          -7.7510    31.2570     8.6880 nh         1 YHY      -0.784400
      9 C9          -8.9480    33.3150     8.0640 c6         1 YHY      -0.081900
     10 C10         -7.1810    30.0350     8.3390 ca         1 YHY       0.326000
     11 C11         -6.2030    29.4520     9.1560 ca         1 YHY      -0.211000
     12 C12         -5.5940    28.2440     8.8280 ca         1 YHY       0.004000
     13 C13         -5.9330    27.5880     7.6430 ca         1 YHY      -0.159000
     14 C14         -6.8970    28.1660     6.8340 ca         1 YHY      -0.059000
     15 C15         -7.5280    29.3550     7.1630 ca         1 YHY      -0.195000
     16 N16         -4.6250    27.7730     9.7260 ns         1 YHY      -0.132000
     17 C17         -4.0980    26.5290     9.8160 c          1 YHY       0.641300
     18 O18         -4.3850    25.5940     9.0870 o          1 YHY      -0.597100
     19 C19         -3.1080    26.3400    10.8950 cc         1 YHY      -0.154300
     20 C20         -2.5300    27.1970    11.7970 cd         1 YHY      -0.175200
     21 C21         -1.6320    26.4150    12.5720 ca         1 YHY      -0.154800
     22 C22         -1.7040    25.0890    12.0960 ca         1 YHY      -0.013200
     23 C23         -0.9460    24.0340    12.6280 ca         1 YHY      -0.106300
     24 C24         -1.0580    22.6440    12.0840 c3         1 YHY      -0.042800
     25 C25         -0.1050    24.3710    13.6670 ca         1 YHY      -0.061000
     26 C26         -0.0020    25.6830    14.1770 ca         1 YHY      -0.183000
     27 C27         -0.7580    26.6800    13.6290 ca         1 YHY       0.223000
     28 F28         -0.6800    27.9350    14.0970 f          1 YHY      -0.175000
     29 N29         -2.6070    25.0810    11.0820 na         1 YHY      -0.180700
     30 H1         -10.6940    36.6330     9.1920 h1         1 YHY       0.030533
     31 H2         -10.2420    35.5740     7.8740 h1         1 YHY       0.030533
     32 H3         -11.5590    35.1080     8.9610 h1         1 YHY       0.030533
     33 H5          -9.1570    34.9440    11.8530 h1         1 YHY       0.030533
     34 H6         -10.1610    36.2700    11.3090 h1         1 YHY       0.030533
     35 H7         -10.8640    34.6570    11.4770 h1         1 YHY       0.030533
     36 H8         -10.3750    33.0100     9.6380 h1         1 YHY       0.017700
     37 H9          -7.4400    33.4470    10.3490 hc         1 YHY       0.056200
     38 H10         -8.7040    32.9340    11.4620 hc         1 YHY       0.056200
     39 H11         -9.0950    30.8770    10.2640 h1         1 YHY       0.037700
     40 H12         -7.4140    31.0330    10.7460 h1         1 YHY       0.037700
     41 H13         -9.6520    31.2990     7.7620 h1         1 YHY       0.037700
     42 H14         -8.2950    31.7830     6.7490 h1         1 YHY       0.037700
     43 H15         -8.0300    33.8860     7.8930 hc         1 YHY       0.056200
     44 H16         -9.6840    33.6630     7.3390 hc         1 YHY       0.056200
     45 H17         -5.8870    29.9530    10.0630 ha         1 YHY       0.111000
     46 H18         -5.4670    26.6620     7.3520 ha         1 YHY       0.146000
     47 H19         -7.1780    27.6630     5.9170 ha         1 YHY       0.112000
     48 H20         -8.2930    29.7330     6.5020 ha         1 YHY       0.114000
     49 H21         -4.3630    28.4310    10.4440 hn         1 YHY       0.158000
     50 H22         -2.7060    28.2570    11.8980 ha         1 YHY       0.210000
     51 H23         -0.7780    22.6030    11.0290 hc         1 YHY       0.044033
     52 H24         -0.4100    21.9590    12.6260 hc         1 YHY       0.044033
     53 H25         -2.0800    22.2660    12.1590 hc         1 YHY       0.044033
     54 H26          0.5070    23.6000    14.1180 ha         1 YHY       0.116000
     55 H27          0.6730    25.8950    14.9950 ha         1 YHY       0.132000
     56 H28         -2.8840    24.2800    10.5350 hn         1 YHY       0.374000
@<TRIPOS>BOND
     1     1     2 1   
     2     1    30 1   
     3     1    31 1   
     4     1    32 1   
     5     2     3 1   
     6     2     4 1   
     7     3    33 1   
     8     3    34 1   
     9     3    35 1   
    10     4     5 1   
    11     4     9 1   
    12     4    36 1   
    13     5     6 1   
    14     5    37 1   
    15     5    38 1   
    16     6     8 1   
    17     6    39 1   
    18     6    40 1   
    19     7     8 1   
    20     7     9 1   
    21     7    41 1   
    22     7    42 1   
    23     8    10 1   
    24     9    43 1   
    25     9    44 1   
    26    10    11 ar  
    27    10    15 ar  
    28    11    12 ar  
    29    11    45 1   
    30    12    13 ar  
    31    12    16 1   
    32    13    14 ar  
    33    13    46 1   
    34    14    15 ar  
    35    14    47 1   
    36    15    48 1   
    37    16    17 1   
    38    16    49 1   
    39    17    18 2   
    40    17    19 1   
    41    19    20 2   
    42    19    29 1   
    43    20    21 1   
    44    20    50 1   
    45    21    22 ar  
    46    21    27 ar  
    47    22    23 ar  
    48    22    29 1   
    49    23    24 1   
    50    23    25 ar  
    51    24    51 1   
    52    24    52 1   
    53    24    53 1   
    54    25    26 ar  
    55    25    54 1   
    56    26    27 ar  
    57    26    55 1   
    58    27    28 1   
    59    29    56 1   
@<TRIPOS>SUBSTRUCTURE
     1 YHY         1 TEMP              0 ****  ****    0 ROOT
