@<TRIPOS>MOLECULE
YHY
   56    59     1     0     0
SMALL
No Charge or Current Charge


@<TRIPOS>ATOM
      1 C1          -9.5420    36.0130     9.1080 c3         1 YHY       0.149100
      2 N2          -9.0580    34.9750    10.0550 n3         1 YHY      -0.710600
      3 C3          -9.6430    35.1960    11.4030 c3         1 YHY       0.149100
      4 C4          -9.2090    33.5640     9.5450 c6         1 YHY       0.184500
      5 C5          -8.6270    32.5120    10.5370 c6         1 YHY      -0.081900
      6 C6          -8.7530    31.0710     9.9930 c6         1 YHY       0.199300
      7 C8          -8.6440    31.9020     7.6600 c6         1 YHY       0.199300
      8 N7          -8.1110    30.9440     8.6610 nh         1 YHY      -0.784400
      9 C9          -8.5230    33.3580     8.1610 c6         1 YHY      -0.081900
     10 C10         -7.5610    29.7040     8.2620 ca         1 YHY       0.326000
     11 C11         -6.5580    29.1060     9.0450 ca         1 YHY      -0.211000
     12 C12         -5.9850    27.8730     8.6850 ca         1 YHY       0.004000
     13 C13         -6.4330    27.2320     7.5100 ca         1 YHY      -0.159000
     14 C14         -7.4340    27.8190     6.7200 ca         1 YHY      -0.059000
     15 C15         -7.9950    29.0500     7.0950 ca         1 YHY      -0.195000
     16 N16         -4.9750    27.3470     9.5370 ns         1 YHY      -0.132000
     17 C17         -4.2170    26.1840     9.4870 c          1 YHY       0.641300
     18 O18         -4.3090    25.3330     8.6080 o          1 YHY      -0.597100
     19 C19         -3.2570    26.0440    10.6190 cc         1 YHY      -0.154300
     20 C20         -3.0630    26.9400    11.6720 cd         1 YHY      -0.175200
     21 C21         -2.0440    26.4500    12.5680 ca         1 YHY      -0.154800
     22 C22         -1.6280    25.2570    12.0470 ca         1 YHY      -0.013200
     23 C23         -0.6280    24.4900    12.6700 ca         1 YHY      -0.106300
     24 C24         -0.1690    23.1620    12.0840 c3         1 YHY      -0.042800
     25 C25         -0.0620    24.9980    13.8640 ca         1 YHY      -0.061000
     26 C26         -0.4970    26.2350    14.4000 ca         1 YHY      -0.183000
     27 C27         -1.5010    26.9750    13.7460 ca         1 YHY       0.223000
     28 F28         -1.9270    28.1570    14.2440 f          1 YHY      -0.175000
     29 N29         -2.3400    24.9980    10.8840 na         1 YHY      -0.180700
     30 H1          -9.4650    37.0140     9.5550 h1         1 YHY       0.030533
     31 H2          -8.9430    36.0310     8.1890 h1         1 YHY       0.030533
     32 H3         -10.5920    35.8400     8.8390 h1         1 YHY       0.030533
     33 H5          -9.1170    34.6130    12.1700 h1         1 YHY       0.030533
     34 H6          -9.5590    36.2510    11.6950 h1         1 YHY       0.030533
     35 H7         -10.7060    34.9200    11.4190 h1         1 YHY       0.030533
     36 H8         -10.2810    33.3460     9.4200 h1         1 YHY       0.017700
     37 H9          -7.5720    32.7360    10.7420 hc         1 YHY       0.056200
     38 H10         -9.1530    32.5460    11.4990 hc         1 YHY       0.056200
     39 H11         -9.8170    30.8030     9.9200 h1         1 YHY       0.037700
     40 H12         -8.2940    30.3810    10.7160 h1         1 YHY       0.037700
     41 H13         -9.7000    31.6760     7.4480 h1         1 YHY       0.037700
     42 H14         -8.0890    31.8130     6.7140 h1         1 YHY       0.037700
     43 H15         -7.4620    33.6350     8.2280 hc         1 YHY       0.056200
     44 H16         -8.9730    34.0060     7.3990 hc         1 YHY       0.056200
     45 H17         -6.2140    29.6150     9.9410 ha         1 YHY       0.111000
     46 H18         -6.0210    26.2790     7.1910 ha         1 YHY       0.146000
     47 H19         -7.7770    27.3180     5.8170 ha         1 YHY       0.112000
     48 H20         -8.7760    29.4840     6.4780 ha         1 YHY       0.114000
     49 H21         -4.7700    27.9360    10.3310 hn         1 YHY       0.158000
     50 H22         -3.5950    27.8780    11.8140 ha         1 YHY       0.210000
     51 H23          0.2360    23.2970    11.0740 hc         1 YHY       0.044033
     52 H24          0.6140    22.6980    12.6950 hc         1 YHY       0.044033
     53 H25         -1.0020    22.4510    12.0210 hc         1 YHY       0.044033
     54 H26          0.7150    24.4370    14.3790 ha         1 YHY       0.116000
     55 H27         -0.0570    26.6180    15.3170 ha         1 YHY       0.132000
     56 H28         -2.2200    24.1730    10.3050 hn         1 YHY       0.374000
@<TRIPOS>BOND
     1     1     2 1   
     2     1    30 1   
     3     1    31 1   
     4     1    32 1   
     5     2     3 1   
     6     2     4 1   
     7     3    33 1   
     8     3    34 1   
     9     3    35 1   
    10     4     5 1   
    11     4     9 1   
    12     4    36 1   
    13     5     6 1   
    14     5    37 1   
    15     5    38 1   
    16     6     8 1   
    17     6    39 1   
    18     6    40 1   
    19     7     8 1   
    20     7     9 1   
    21     7    41 1   
    22     7    42 1   
    23     8    10 1   
    24     9    43 1   
    25     9    44 1   
    26    10    11 ar  
    27    10    15 ar  
    28    11    12 ar  
    29    11    45 1   
    30    12    13 ar  
    31    12    16 1   
    32    13    14 ar  
    33    13    46 1   
    34    14    15 ar  
    35    14    47 1   
    36    15    48 1   
    37    16    17 1   
    38    16    49 1   
    39    17    18 2   
    40    17    19 1   
    41    19    20 2   
    42    19    29 1   
    43    20    21 1   
    44    20    50 1   
    45    21    22 ar  
    46    21    27 ar  
    47    22    23 ar  
    48    22    29 1   
    49    23    24 1   
    50    23    25 ar  
    51    24    51 1   
    52    24    52 1   
    53    24    53 1   
    54    25    26 ar  
    55    25    54 1   
    56    26    27 ar  
    57    26    55 1   
    58    27    28 1   
    59    29    56 1   
@<TRIPOS>SUBSTRUCTURE
     1 YHY         1 TEMP              0 ****  ****    0 ROOT
