@<TRIPOS>MOLECULE
YHZ
   47    48     1     0     0
SMALL
No Charge or Current Charge


@<TRIPOS>ATOM
      1 PG         191.4170   171.8480   123.6980 p5         1 YHZ       1.409500
      2 O1G        189.9510   171.6740   123.8920 o          1 YHZ      -0.930167
      3 O2G        191.8110   171.0830   122.4830 o          1 YHZ      -0.930167
      4 O3G        191.8120   173.2730   123.5360 o          1 YHZ      -0.930167
      5 PB         192.2370   172.1500   126.3720 p5         1 YHZ       1.544400
      6 O1B        190.9390   172.8750   126.5200 o          1 YHZ      -0.891000
      7 O2B        192.5360   171.2570   127.5340 o          1 YHZ      -0.891000
      8 C3B        192.2640   171.0250   124.9980 c3         1 YHZ      -0.825400
      9 PA         194.0550   173.8260   127.1790 p5         1 YHZ       1.501800
     10 O1A        193.0680   174.3970   128.1440 o          1 YHZ      -0.894000
     11 O2A        195.1400   173.0600   127.8630 o          1 YHZ      -0.894000
     12 O3A        193.4650   173.0420   125.9490 os         1 YHZ      -0.755800
     13 O5         194.7200   175.0230   126.3320 os         1 YHZ      -0.620400
     14 C5         193.8660   176.0320   125.7650 c3         1 YHZ       0.223600
     15 C4         194.2840   176.3480   124.2980 c5         1 YHZ       0.132300
     16 O4         195.5590   177.0500   124.2330 os         1 YHZ      -0.488000
     17 C3         194.3780   175.1160   123.3200 c5         1 YHZ       0.181300
     18 O3         193.2150   174.9800   122.4690 oh         1 YHZ      -0.863000
     19 C2         195.6040   175.4920   122.4320 c5         1 YHZ       0.086300
     20 O2         195.1130   176.2810   121.3470 oh         1 YHZ      -0.780000
     21 C1         196.5010   176.2610   123.4560 c5         1 YHZ       0.138300
     22 C8         197.3450   175.3180   124.3750 c3         1 YHZ       0.161800
     23 N7         198.0370   176.0300   125.4750 nu         1 YHZ      -0.890200
     24 C7         199.0980   176.9590   125.3310 ca         1 YHZ       0.215000
     25 C6         199.4620   177.8760   126.3700 ca         1 YHZ       0.294900
     26 N6         198.8710   177.9200   127.6150 nv         1 YHZ      -1.041900
     27 N1         200.4530   178.7710   126.2140 nb         1 YHZ      -0.275000
     28 C10        201.0990   178.7590   125.0300 ca         1 YHZ       0.054900
     29 N3         200.8560   177.9380   123.9870 nb         1 YHZ      -0.201000
     30 C9         199.8590   177.0410   124.1410 ca         1 YHZ       0.005900
     31 H4         193.2940   170.8060   124.7130 hc         1 YHZ       0.044700
     32 H5         191.7470   170.1000   125.2570 hc         1 YHZ       0.044700
     33 H7         193.9190   176.9550   126.3580 h1         1 YHZ       0.037200
     34 H8         192.8160   175.7070   125.7540 h1         1 YHZ       0.037200
     35 H9         193.5350   177.0530   123.9140 h1         1 YHZ       0.019700
     36 H10        194.5780   174.1850   123.8710 h1         1 YHZ       0.087700
     37 H11        192.6150   174.2600   122.9330 ho         1 YHZ       0.654000
     38 H12        196.1110   174.5940   122.0490 h1         1 YHZ       0.034700
     39 H13        194.1460   176.0250   121.4150 ho         1 YHZ       0.540000
     40 H14        197.1910   176.9450   122.9450 h1         1 YHZ       0.017700
     41 H15        198.0750   174.7840   123.7500 h1         1 YHZ       0.072700
     42 H16        196.6840   174.5500   124.7980 h1         1 YHZ       0.072700
     43 H17        197.4390   176.2150   126.2820 hn         1 YHZ       0.509000
     44 H18        199.3020   178.5200   128.3150 hn         1 YHZ       0.472500
     45 H19        198.4240   177.0820   127.9760 hn         1 YHZ       0.472500
     46 H20        201.9010   179.4830   124.9040 h5         1 YHZ       0.004100
     47 H21        199.6690   176.3860   123.2920 h4         1 YHZ       0.029100
@<TRIPOS>BOND
     1     1     2 1   
     2     1     3 1   
     3     1     4 1   
     4     1     8 1   
     5     5     6 1   
     6     5     7 1   
     7     5     8 1   
     8     5    12 1   
     9     8    31 1   
    10     8    32 1   
    11     9    10 1   
    12     9    11 1   
    13     9    12 1   
    14     9    13 1   
    15    13    14 1   
    16    14    15 1   
    17    14    33 1   
    18    14    34 1   
    19    15    16 1   
    20    15    17 1   
    21    15    35 1   
    22    16    21 1   
    23    17    18 1   
    24    17    19 1   
    25    17    36 1   
    26    18    37 1   
    27    19    20 1   
    28    19    21 1   
    29    19    38 1   
    30    20    39 1   
    31    21    22 1   
    32    21    40 1   
    33    22    23 1   
    34    22    41 1   
    35    22    42 1   
    36    23    24 1   
    37    23    43 1   
    38    24    25 ar  
    39    24    30 ar  
    40    25    26 1   
    41    25    27 ar  
    42    26    44 1   
    43    26    45 1   
    44    27    28 ar  
    45    28    29 ar  
    46    28    46 1   
    47    29    30 ar  
    48    30    47 1   
@<TRIPOS>SUBSTRUCTURE
     1 YHZ         1 TEMP              0 ****  ****    0 ROOT
