@<TRIPOS>MOLECULE
YHZ
   47    48     1     0     0
SMALL
abcg2


@<TRIPOS>ATOM
      1 PG         192.4470   171.3210   123.4670 p5         1 YHZ       1.409500
      2 O1G        191.0340   170.7470   123.5300 o          1 YHZ      -0.930167
      3 O2G        193.5390   170.3170   123.1040 o          1 YHZ      -0.930167
      4 O3G        192.5240   172.5940   122.5630 o          1 YHZ      -0.930167
      5 PB         191.5470   172.6790   126.1550 p5         1 YHZ       1.544400
      6 O1B        190.8380   173.7620   125.3790 o          1 YHZ      -0.891000
      7 O2B        190.7280   171.6220   126.8500 o          1 YHZ      -0.891000
      8 C3B        192.8840   171.9110   125.1920 c3         1 YHZ      -0.825400
      9 PA         193.8330   174.0030   127.7510 p5         1 YHZ       1.501800
     10 O1A        193.6870   175.0470   128.8190 o          1 YHZ      -0.894000
     11 O2A        194.7700   172.8470   127.9260 o          1 YHZ      -0.894000
     12 O3A        192.3340   173.4790   127.4140 os         1 YHZ      -0.755800
     13 O5         194.3120   174.7310   126.3490 os         1 YHZ      -0.620400
     14 C5         193.6110   175.8450   125.8420 c3         1 YHZ       0.223600
     15 C4         194.1690   176.2530   124.4980 c5         1 YHZ       0.132300
     16 O4         195.4890   176.7560   124.6240 os         1 YHZ      -0.488000
     17 C3         194.2390   175.1360   123.4500 c5         1 YHZ       0.181300
     18 O3         193.0420   174.9770   122.7750 oh         1 YHZ      -0.863000
     19 C2         195.3790   175.6350   122.5490 c5         1 YHZ       0.086300
     20 O2         194.8800   176.5730   121.6270 oh         1 YHZ      -0.780000
     21 C1         196.3060   176.3020   123.5520 c5         1 YHZ       0.138300
     22 C8         197.3550   175.3270   124.0930 c3         1 YHZ       0.161800
     23 N7         198.0760   175.8170   125.2480 nu         1 YHZ      -0.890200
     24 C7         199.0040   176.8350   125.1260 ca         1 YHZ       0.215000
     25 C6         199.5710   177.3990   126.3030 ca         1 YHZ       0.294900
     26 N6         199.1690   176.9700   127.5280 nv         1 YHZ      -1.041900
     27 N1         200.4640   178.3720   126.2370 nb         1 YHZ      -0.275000
     28 C10        200.8420   178.7850   125.0320 ca         1 YHZ       0.054900
     29 N3         200.4270   178.3080   123.8820 nb         1 YHZ      -0.201000
     30 C9         199.5020   177.3380   123.9400 ca         1 YHZ       0.005900
     31 H4         193.7270   172.5950   125.1030 hc         1 YHZ       0.044700
     32 H5         193.2480   171.0570   125.7700 hc         1 YHZ       0.044700
     33 H7         193.6680   176.6940   126.5330 h1         1 YHZ       0.037200
     34 H8         192.5510   175.6150   125.6940 h1         1 YHZ       0.037200
     35 H9         193.5080   177.0460   124.1170 h1         1 YHZ       0.019700
     36 H10        194.5650   174.2050   123.9310 h1         1 YHZ       0.087700
     37 H11        192.8120   173.9580   122.7210 ho         1 YHZ       0.654000
     38 H12        195.8820   174.8050   122.0290 h1         1 YHZ       0.034700
     39 H13        193.9790   176.2770   121.4310 ho         1 YHZ       0.540000
     40 H14        196.8070   177.1690   123.1060 h1         1 YHZ       0.017700
     41 H15        198.0600   175.0670   123.3010 h1         1 YHZ       0.072700
     42 H16        196.8750   174.3920   124.3910 h1         1 YHZ       0.072700
     43 H17        197.4560   175.9360   126.0370 hn         1 YHZ       0.509000
     44 H18        199.7180   177.3000   128.3060 hn         1 YHZ       0.472500
     45 H19        198.8760   176.0100   127.6200 hn         1 YHZ       0.472500
     46 H20        201.5730   179.5870   125.0050 h5         1 YHZ       0.004100
     47 H21        199.1570   176.9570   122.9860 h4         1 YHZ       0.029100
@<TRIPOS>BOND
     1     1     2 1   
     2     1     3 1   
     3     1     4 1   
     4     1     8 1   
     5     5     6 1   
     6     5     7 1   
     7     5     8 1   
     8     5    12 1   
     9     8    31 1   
    10     8    32 1   
    11     9    10 1   
    12     9    11 1   
    13     9    12 1   
    14     9    13 1   
    15    13    14 1   
    16    14    15 1   
    17    14    33 1   
    18    14    34 1   
    19    15    16 1   
    20    15    17 1   
    21    15    35 1   
    22    16    21 1   
    23    17    18 1   
    24    17    19 1   
    25    17    36 1   
    26    18    37 1   
    27    19    20 1   
    28    19    21 1   
    29    19    38 1   
    30    20    39 1   
    31    21    22 1   
    32    21    40 1   
    33    22    23 1   
    34    22    41 1   
    35    22    42 1   
    36    23    24 1   
    37    23    43 1   
    38    24    25 ar  
    39    24    30 ar  
    40    25    26 1   
    41    25    27 ar  
    42    26    44 1   
    43    26    45 1   
    44    27    28 ar  
    45    28    29 ar  
    46    28    46 1   
    47    29    30 ar  
    48    30    47 1   
@<TRIPOS>SUBSTRUCTURE
     1 YHZ         1 TEMP              0 ****  ****    0 ROOT
