@<TRIPOS>MOLECULE
YI0
   33    35     1     0     0
SMALL
No Charge or Current Charge


@<TRIPOS>ATOM
      1 N1           0.8240    -4.1150    -0.2570 nc         1 YI0      -0.143100
      2 N2          -0.2670    -3.3950    -0.3650 nd         1 YI0      -0.277000
      3 C3          -0.0470    -2.0240    -0.2890 cd         1 YI0       0.292500
      4 C4           1.2870    -1.7560    -0.0480 cc         1 YI0      -0.162000
      5 C6          -1.1890    -1.0670    -0.2610 ca         1 YI0      -0.189500
      6 C7           1.8690    -0.4140    -0.0240 ca         1 YI0      -0.069000
      7 C12          2.7640    -0.0560     1.0020 ca         1 YI0      -0.047000
      8 C13          3.3290     1.2310     1.0310 ca         1 YI0      -0.176000
      9 C14          3.0150     2.1690     0.0360 ca         1 YI0       0.159100
     10 C15          2.1310     1.8090    -1.0030 ca         1 YI0      -0.176000
     11 C16          1.5670     0.5220    -1.0330 ca         1 YI0      -0.047000
     12 C21         -2.4070    -1.3170    -0.9460 ca         1 YI0       0.213100
     13 C22         -3.4810    -0.4180    -0.8600 ca         1 YI0      -0.314000
     14 C23         -3.3760     0.7360    -0.0750 ca         1 YI0       0.201100
     15 C24         -2.1900     0.9910     0.6370 ca         1 YI0       0.034000
     16 C25         -1.1170     0.0920     0.5510 ca         1 YI0      -0.007000
     17 O29         -4.4350     1.5940    -0.0080 oh         1 YI0      -0.509100
     18 O30         -2.5580    -2.3940    -1.7650 oh         1 YI0      -0.508100
     19 O33          3.5980     3.4170     0.1200 os         1 YI0      -0.337100
     20 S1           2.2110    -3.2190     0.0020 ss         1 YI0       0.268100
     21 C34          3.3380     4.4520    -0.8460 c3         1 YI0       0.146900
     22 Cl          -2.0300     2.4210     1.6600 cl         1 YI0      -0.176000
     23 H25         -0.2390     0.2960     1.1560 ha         1 YI0       0.140000
     24 H12          3.0130    -0.7710     1.7830 ha         1 YI0       0.121000
     25 H16          0.8910     0.2520    -1.8420 ha         1 YI0       0.121000
     26 H13          4.0130     1.5030     1.8310 ha         1 YI0       0.126500
     27 H15          1.8720     2.5090    -1.7930 ha         1 YI0       0.126500
     28 H22         -4.3980    -0.6140    -1.4090 ha         1 YI0       0.119000
     29 H30         -3.4620    -2.3660    -2.1390 ho         1 YI0       0.467000
     30 H29         -5.1540     1.2340    -0.5680 ho         1 YI0       0.470000
     31 H341         3.6450     4.1340    -1.8510 h1         1 YI0       0.043700
     32 H342         2.2700     4.7060    -0.8670 h1         1 YI0       0.043700
     33 H343         3.8980     5.3600    -0.5900 h1         1 YI0       0.043700
@<TRIPOS>BOND
     1     1     2 2   
     2     1    20 1   
     3     2     3 1   
     4     3     4 2   
     5     3     5 1   
     6     4     6 1   
     7     4    20 1   
     8     5    12 ar  
     9     5    16 ar  
    10     6     7 ar  
    11     6    11 ar  
    12     7     8 ar  
    13     7    24 1   
    14     8     9 ar  
    15     8    26 1   
    16     9    10 ar  
    17     9    19 1   
    18    10    11 ar  
    19    10    27 1   
    20    11    25 1   
    21    12    13 ar  
    22    12    18 1   
    23    13    14 ar  
    24    13    28 1   
    25    14    15 ar  
    26    14    17 1   
    27    15    16 ar  
    28    15    22 1   
    29    16    23 1   
    30    17    30 1   
    31    18    29 1   
    32    19    21 1   
    33    21    31 1   
    34    21    32 1   
    35    21    33 1   
@<TRIPOS>SUBSTRUCTURE
     1 YI0         1 TEMP              0 ****  ****    0 ROOT
