@<TRIPOS>MOLECULE
YI0
   33    35     1     0     0
SMALL
abcg2


@<TRIPOS>ATOM
      1 N1           0.7250    -4.1010     0.1200 nc         1 YI0      -0.143100
      2 N2          -0.3230    -3.3950     0.0360 nd         1 YI0      -0.277000
      3 C3          -0.1140    -2.0520    -0.0090 cd         1 YI0       0.292500
      4 C4           1.2180    -1.7040     0.0380 cc         1 YI0      -0.162000
      5 C6          -1.2470    -1.1200    -0.0370 ca         1 YI0      -0.189500
      6 C7           1.8380    -0.3840    -0.0130 ca         1 YI0      -0.069000
      7 C12          2.9400    -0.0740     0.7910 ca         1 YI0      -0.047000
      8 C13          3.5280     1.1720     0.7410 ca         1 YI0      -0.176000
      9 C14          3.0320     2.1520    -0.1230 ca         1 YI0       0.159100
     10 C15          1.9380     1.8530    -0.9350 ca         1 YI0      -0.176000
     11 C16          1.3540     0.5990    -0.8720 ca         1 YI0      -0.047000
     12 C21         -2.1910    -1.1480    -1.0690 ca         1 YI0       0.213100
     13 C22         -3.2380    -0.2330    -1.0860 ca         1 YI0      -0.314000
     14 C23         -3.3620     0.7230    -0.0850 ca         1 YI0       0.201100
     15 C24         -2.4210     0.7470     0.9460 ca         1 YI0       0.034000
     16 C25         -1.3850    -0.1630     0.9620 ca         1 YI0      -0.007000
     17 O29         -4.3460     1.6270    -0.0600 oh         1 YI0      -0.509100
     18 O30         -2.0330    -2.0660    -2.0330 oh         1 YI0      -0.508100
     19 O33          3.6610     3.3360    -0.1060 os         1 YI0      -0.337100
     20 S1           2.1070    -3.1480     0.1450 ss         1 YI0       0.268100
     21 C34          3.2240     4.3510    -0.9920 c3         1 YI0       0.146900
     22 CL          -2.5710     1.9290     2.2000 cl         1 YI0      -0.176000
     23 H25         -0.6640    -0.1310     1.7690 ha         1 YI0       0.140000
     24 H12          3.3360    -0.8100     1.4800 ha         1 YI0       0.121000
     25 H16          0.5130     0.3900    -1.5210 ha         1 YI0       0.121000
     26 H13          4.3770     1.3970     1.3750 ha         1 YI0       0.126500
     27 H15          1.5280     2.5790    -1.6230 ha         1 YI0       0.126500
     28 H22         -3.9620    -0.2590    -1.8930 ha         1 YI0       0.119000
     29 H30         -2.7240    -1.9820    -2.7010 ho         1 YI0       0.467000
     30 H29         -4.9280     1.5210    -0.8210 ho         1 YI0       0.470000
     31 H341         3.3130     4.0430    -2.0370 h1         1 YI0       0.043700
     32 H342         2.1900     4.6460    -0.7960 h1         1 YI0       0.043700
     33 H343         3.8720     5.2070    -0.8210 h1         1 YI0       0.043700
@<TRIPOS>BOND
     1     1     2 2   
     2     1    20 1   
     3     2     3 1   
     4     3     4 2   
     5     3     5 1   
     6     4     6 1   
     7     4    20 1   
     8     5    12 ar  
     9     5    16 ar  
    10     6     7 ar  
    11     6    11 ar  
    12     7     8 ar  
    13     7    24 1   
    14     8     9 ar  
    15     8    26 1   
    16     9    10 ar  
    17     9    19 1   
    18    10    11 ar  
    19    10    27 1   
    20    11    25 1   
    21    12    13 ar  
    22    12    18 1   
    23    13    14 ar  
    24    13    28 1   
    25    14    15 ar  
    26    14    17 1   
    27    15    16 ar  
    28    15    22 1   
    29    16    23 1   
    30    17    30 1   
    31    18    29 1   
    32    19    21 1   
    33    21    31 1   
    34    21    32 1   
    35    21    33 1   
@<TRIPOS>SUBSTRUCTURE
     1 YI0         1 TEMP              0 ****  ****    0 ROOT
