@<TRIPOS>MOLECULE
YI1
   35    36     1     0     0
SMALL
bcc


@<TRIPOS>ATOM
      1 FAG         -4.2080    -0.4050    -1.2320 f          1 YI1      -0.271300
      2 CAE         -3.1550     0.2050    -0.5780 c3         1 YI1       0.344700
      3 FAF         -2.7790     1.2350    -1.4230 f          1 YI1      -0.271300
      4 PAB         -3.7390     0.8950     1.0790 p5         1 YI1       1.102700
      5 OAC         -4.9200     1.7840     0.7000 o          1 YI1      -0.828500
      6 OAA         -4.1010    -0.3670     1.8530 o          1 YI1      -0.828500
      7 OAD         -2.5110     1.6440     1.5890 o          1 YI1      -0.828500
      8 CAH         -2.0190    -0.7640    -0.4860 ca         1 YI1      -0.060300
      9 CAJ         -2.2280    -2.1380    -0.5440 ca         1 YI1      -0.066000
     10 CAK         -1.1530    -3.0090    -0.4310 ca         1 YI1      -0.157000
     11 CAL          0.1320    -2.5220    -0.2510 ca         1 YI1      -0.141000
     12 CAM          0.3570    -1.1470    -0.1740 cp         1 YI1      -0.118000
     13 CAI         -0.7290    -0.2820    -0.2880 ca         1 YI1      -0.053000
     14 CAN          1.7200    -0.6160     0.0320 cp         1 YI1       0.086000
     15 CAQ          2.6400    -1.2930     0.8350 ca         1 YI1      -0.130500
     16 CAR          3.9150    -0.7910     1.0320 ca         1 YI1      -0.093500
     17 CAS          4.3060     0.4050     0.4390 ca         1 YI1      -0.182300
     18 CAP          3.3960     1.0840    -0.3650 ca         1 YI1      -0.093500
     19 CAO          2.1220     0.5810    -0.5660 ca         1 YI1      -0.130500
     20 CAT          5.6890     0.9310     0.6340 c3         1 YI1       0.161700
     21 OAU          6.4790     0.3800    -0.4420 os         1 YI1      -0.212100
     22 NAV          7.7890     0.8050    -0.3490 nz         1 YI1      -0.621100
     23 HAJ         -3.2220    -2.5400    -0.6840 ha         1 YI1       0.153000
     24 HAI         -0.5750     0.7830    -0.1930 ha         1 YI1       0.167000
     25 HAK         -1.3170    -4.0770    -0.4910 ha         1 YI1       0.108000
     26 HAL          0.9610    -3.2150    -0.1900 ha         1 YI1       0.095000
     27 HAQ          2.3540    -2.2120     1.3300 ha         1 YI1       0.155500
     28 HAO          1.4380     1.1200    -1.2090 ha         1 YI1       0.155500
     29 HAR          4.6060    -1.3280     1.6700 ha         1 YI1       0.113500
     30 HAP          3.6820     2.0160    -0.8390 ha         1 YI1       0.113500
     31 HAT1         5.7170     2.0230     0.5810 h1         1 YI1       0.046700
     32 HAT2         6.1070     0.6120     1.5930 h1         1 YI1       0.046700
     33 HAV1         8.2950     0.3870    -1.1320 hn         1 YI1       0.412800
     34 HAV2         7.8720     1.8250    -0.4230 hn         1 YI1       0.412800
     35 HAV3         8.2340     0.4950     0.5210 hn         1 YI1       0.412800
@<TRIPOS>BOND
     1     1     2 1   
     2     2     3 1   
     3     2     4 1   
     4     2     8 1   
     5     4     5 1   
     6     4     6 1   
     7     4     7 1   
     8     8     9 ar  
     9     8    13 ar  
    10     9    10 ar  
    11     9    23 1   
    12    10    11 ar  
    13    10    25 1   
    14    11    12 ar  
    15    11    26 1   
    16    12    13 ar  
    17    12    14 1   
    18    13    24 1   
    19    14    15 ar  
    20    14    19 ar  
    21    15    16 ar  
    22    15    27 1   
    23    16    17 ar  
    24    16    29 1   
    25    17    18 ar  
    26    17    20 1   
    27    18    19 ar  
    28    18    30 1   
    29    19    28 1   
    30    20    21 1   
    31    20    31 1   
    32    20    32 1   
    33    21    22 1   
    34    22    33 1   
    35    22    34 1   
    36    22    35 1   
@<TRIPOS>SUBSTRUCTURE
     1 YI1         1 TEMP              0 ****  ****    0 ROOT
