@<TRIPOS>MOLECULE
YI1
   35    36     1     0     0
SMALL
No Charge or Current Charge


@<TRIPOS>ATOM
      1 FAG         -4.2440    -0.2830    -1.3940 f          1 YI1      -0.150000
      2 CAE         -3.2550     0.2490    -0.6290 c3         1 YI1      -0.054700
      3 FAF         -2.8670     1.3790    -1.2790 f          1 YI1      -0.150000
      4 PAB         -4.0020     0.7530     1.0370 p5         1 YI1       1.260500
      5 OAC         -5.1360     1.7000     0.8050 o          1 YI1      -0.828833
      6 OAA         -4.5020    -0.4680     1.7410 o          1 YI1      -0.828833
      7 OAD         -2.9500     1.4210     1.8640 o          1 YI1      -0.828833
      8 CAH         -2.0810    -0.7300    -0.4850 ca         1 YI1      -0.061300
      9 CAJ         -2.2990    -2.1230    -0.5120 ca         1 YI1      -0.048000
     10 CAK         -1.2230    -3.0130    -0.3740 ca         1 YI1      -0.139000
     11 CAL          0.0810    -2.5240    -0.2030 ca         1 YI1      -0.123000
     12 CAM          0.3380    -1.1320    -0.1640 cp         1 YI1      -0.118000
     13 CAI         -0.7660    -0.2500    -0.3040 ca         1 YI1      -0.035000
     14 CAN          1.7290    -0.6060     0.0230 cp         1 YI1       0.086000
     15 CAQ          2.6600    -1.2790     0.8520 ca         1 YI1      -0.112500
     16 CAR          3.9650    -0.7870     1.0300 ca         1 YI1      -0.075500
     17 CAS          4.3730     0.3920     0.3810 ca         1 YI1      -0.182300
     18 CAP          3.4640     1.0720    -0.4490 ca         1 YI1      -0.075500
     19 CAO          2.1590     0.5790    -0.6240 ca         1 YI1      -0.112500
     20 CAT          5.7870     0.9250     0.5720 c3         1 YI1       0.184900
     21 OAU          6.6320     0.3480    -0.4420 os         1 YI1      -0.235300
     22 NAV          8.0890     0.8200    -0.3440 nz         1 YI1      -0.786700
     23 HAJ         -3.3040    -2.5200    -0.6370 ha         1 YI1       0.135000
     24 HAI         -0.5980     0.8230    -0.2530 ha         1 YI1       0.149000
     25 HAK         -1.4000    -4.0860    -0.4000 ha         1 YI1       0.090000
     26 HAL          0.9000    -3.2330    -0.1110 ha         1 YI1       0.077000
     27 HAQ          2.3640    -2.1840     1.3740 ha         1 YI1       0.137500
     28 HAO          1.4800     1.1150    -1.2810 ha         1 YI1       0.137500
     29 HAR          4.6580    -1.3250     1.6740 ha         1 YI1       0.095500
     30 HAP          3.7670     1.9820    -0.9630 ha         1 YI1       0.095500
     31 HAT1         5.7820     2.0200     0.4930 h1         1 YI1       0.046700
     32 HAT2         6.1490     0.6600     1.5740 h1         1 YI1       0.046700
     33 HAV1         8.6830     0.3980    -1.0770 hn         1 YI1       0.468000
     34 HAV2         8.1890     1.8420    -0.4530 hn         1 YI1       0.468000
     35 HAV3         8.5320     0.5730     0.5560 hn         1 YI1       0.468000
@<TRIPOS>BOND
     1     1     2 1   
     2     2     3 1   
     3     2     4 1   
     4     2     8 1   
     5     4     5 1   
     6     4     6 1   
     7     4     7 1   
     8     8     9 ar  
     9     8    13 ar  
    10     9    10 ar  
    11     9    23 1   
    12    10    11 ar  
    13    10    25 1   
    14    11    12 ar  
    15    11    26 1   
    16    12    13 ar  
    17    12    14 1   
    18    13    24 1   
    19    14    15 ar  
    20    14    19 ar  
    21    15    16 ar  
    22    15    27 1   
    23    16    17 ar  
    24    16    29 1   
    25    17    18 ar  
    26    17    20 1   
    27    18    19 ar  
    28    18    30 1   
    29    19    28 1   
    30    20    21 1   
    31    20    31 1   
    32    20    32 1   
    33    21    22 1   
    34    22    33 1   
    35    22    34 1   
    36    22    35 1   
@<TRIPOS>SUBSTRUCTURE
     1 YI1         1 TEMP              0 ****  ****    0 ROOT
