@<TRIPOS>MOLECULE
YI2
   77    79     1     0     0
SMALL
abcg2


@<TRIPOS>ATOM
      1 C12         -1.3820     2.9660    -0.2770 c6         1 YI2      -0.059400
      2 C13         -1.2640     1.4600    -0.0540 c5         1 YI2      -0.007800
      3 C14         -0.0930     1.2160     0.9250 c5         1 YI2      -0.037500
      4 C15         -0.3660    -0.1700     1.5010 c5         1 YI2      -0.040200
      5 C16         -1.8740    -0.1640     1.5170 c2         1 YI2      -0.201200
      6 C21         -4.4870     1.6810     1.6600 c3         1 YI2      -0.084100
      7 C24         -7.2710    -1.1250    -0.5570 c3         1 YI2       0.202000
      8 C29         -8.2100    -0.5300     1.7680 c3         1 YI2      -0.085600
      9 C27         -7.5560    -1.5770     0.8780 c3         1 YI2      -0.086400
     10 C26         -8.5430    -0.6480    -1.2750 c3         1 YI2      -0.086400
     11 C28         -9.6720    -1.6690    -1.3170 c3         1 YI2      -0.085600
     12 O03         -6.7290    -2.2660    -1.2050 oh         1 YI2      -0.650000
     13 S22         -4.6130    -0.5400    -0.0430 ss         1 YI2      -0.414000
     14 C20         -3.8310     1.0420     0.4420 c3         1 YI2       0.136500
     15 C17         -2.3800     0.7580     0.6950 c2         1 YI2      -0.119400
     16 C18         -1.0800     0.7270    -1.3910 c3         1 YI2      -0.078100
     17 C11         -0.0580     3.5340    -0.8030 c6         1 YI2      -0.071400
     18 C09          1.1740     3.1150     0.0200 c6         1 YI2      -0.041200
     19 C08          1.2060     1.6380     0.3260 c2         1 YI2      -0.077400
     20 C07          2.2330     0.8030     0.1110 ce         1 YI2      -0.183000
     21 C06          3.5240     1.1600    -0.4500 ce         1 YI2      -0.171000
     22 C05          4.5540     0.3320    -0.6830 c2         1 YI2      -0.097400
     23 C10          5.8590     0.8430    -1.2120 c6         1 YI2      -0.078700
     24 C01          7.0000     0.5090    -0.2430 c6         1 YI2       0.213500
     25 O01          6.8220     1.1410     1.0090 oh         1 YI2      -0.654000
     26 C04          4.5740    -1.1400    -0.4050 c6         1 YI2      -0.078700
     27 C03          5.7250    -1.5130     0.5480 c6         1 YI2       0.213500
     28 O02          5.8090    -2.9050     0.7230 oh         1 YI2      -0.654000
     29 C02          7.0260    -0.9780     0.0030 c2         1 YI2      -0.109400
     30 C30          8.0590    -1.7710    -0.2790 c2         1 YI2      -0.181200
     31 C31          9.3780    -1.3850    -0.8670 c3         1 YI2       0.194800
     32 O04         10.3910    -2.0240    -0.1140 oh         1 YI2      -0.652000
     33 H1          -2.1830     3.2060    -0.9830 hc         1 YI2       0.041200
     34 H2          -1.6410     3.4510     0.6700 hc         1 YI2       0.041200
     35 H3          -0.2810     1.9110     1.7580 hc         1 YI2       0.055700
     36 H4           0.0150    -0.9850     0.8740 hc         1 YI2       0.054700
     37 H5           0.0730    -0.3090     2.4910 hc         1 YI2       0.054700
     38 H6          -2.4580    -0.8600     2.1070 ha         1 YI2       0.198000
     39 H8          -4.4630     1.0040     2.5130 hc         1 YI2       0.041367
     40 H9          -3.9550     2.5950     1.9330 hc         1 YI2       0.041367
     41 H10         -5.5250     1.9540     1.4700 hc         1 YI2       0.041367
     42 H11         -6.1640     0.3950    -1.6290 h1         1 YI2       0.058700
     43 H12         -6.5830     0.8550     0.0090 h1         1 YI2       0.058700
     44 H13         -8.3670    -0.9320     2.7690 hc         1 YI2       0.034033
     45 H14         -7.5930     0.3630     1.8750 hc         1 YI2       0.034033
     46 H15         -9.1830    -0.2140     1.3890 hc         1 YI2       0.034033
     47 H16         -8.1970    -2.4620     0.8370 hc         1 YI2       0.050700
     48 H17         -6.6180    -1.9000     1.3350 hc         1 YI2       0.050700
     49 H18         -8.8930     0.2740    -0.8040 hc         1 YI2       0.050700
     50 H19         -8.2710    -0.3700    -2.2990 hc         1 YI2       0.050700
     51 H20         -9.3450    -2.6070    -1.7660 hc         1 YI2       0.034033
     52 H21        -10.0620    -1.8930    -0.3240 hc         1 YI2       0.034033
     53 H22        -10.5040    -1.2920    -1.9130 hc         1 YI2       0.034033
     54 H23         -6.5520    -2.0400    -2.1240 ho         1 YI2       0.442000
     55 H24         -3.9180     1.7220    -0.4100 h1         1 YI2       0.065700
     56 H26         -1.9880     0.8050    -1.9930 hc         1 YI2       0.038033
     57 H27         -0.2590     1.1320    -1.9810 hc         1 YI2       0.038033
     58 H28         -0.8770    -0.3330    -1.2370 hc         1 YI2       0.038033
     59 H29          0.0870     3.2260    -1.8410 hc         1 YI2       0.040200
     60 H30         -0.1110     4.6240    -0.8200 hc         1 YI2       0.040200
     61 H31          2.0740     3.4530    -0.4930 hc         1 YI2       0.045700
     62 H32          1.1470     3.6530     0.9750 hc         1 YI2       0.045700
     63 H33          2.0920    -0.2340     0.3970 ha         1 YI2       0.172000
     64 H34          3.6790     2.2050    -0.6980 ha         1 YI2       0.165000
     65 H35          6.0920     0.3740    -2.1750 hc         1 YI2       0.052700
     66 H36          5.8210     1.9220    -1.3900 hc         1 YI2       0.052700
     67 H37          7.9380     0.8350    -0.7060 h1         1 YI2       0.048200
     68 H38          6.6110     2.0670     0.8540 ho         1 YI2       0.443500
     69 H39          3.6310    -1.4940     0.0170 hc         1 YI2       0.052700
     70 H40          4.7290    -1.6840    -1.3450 hc         1 YI2       0.052700
     71 H41          5.5290    -1.0210     1.5110 h1         1 YI2       0.048200
     72 H42          4.9890    -3.2040     1.1270 ho         1 YI2       0.443500
     73 H43          7.9540    -2.8360    -0.1020 ha         1 YI2       0.205000
     74 H44          9.4030    -1.7160    -1.9150 h1         1 YI2       0.021200
     75 H45          9.5200    -0.2990    -0.8830 h1         1 YI2       0.021200
     76 H46         11.2240    -1.9070    -0.5800 ho         1 YI2       0.439000
     77 C23         -6.2490     0.0190    -0.6060 c3         1 YI2       0.021600
@<TRIPOS>BOND
     1     1     2 1   
     2     1    17 1   
     3     1    33 1   
     4     1    34 1   
     5     2     3 1   
     6     2    15 1   
     7     2    16 1   
     8     3     4 1   
     9     3    19 1   
    10     3    35 1   
    11     4     5 1   
    12     4    36 1   
    13     4    37 1   
    14     5    15 2   
    15     5    38 1   
    16     6    14 1   
    17     6    39 1   
    18     6    40 1   
    19     6    41 1   
    20     7     9 1   
    21     7    10 1   
    22     7    12 1   
    23     7    77 1   
    24     8     9 1   
    25     8    44 1   
    26     8    45 1   
    27     8    46 1   
    28     9    47 1   
    29     9    48 1   
    30    10    11 1   
    31    10    49 1   
    32    10    50 1   
    33    11    51 1   
    34    11    52 1   
    35    11    53 1   
    36    12    54 1   
    37    13    14 1   
    38    13    77 1   
    39    14    15 1   
    40    14    55 1   
    41    16    56 1   
    42    16    57 1   
    43    16    58 1   
    44    17    18 1   
    45    17    59 1   
    46    17    60 1   
    47    18    19 1   
    48    18    61 1   
    49    18    62 1   
    50    19    20 2   
    51    20    21 1   
    52    20    63 1   
    53    21    22 2   
    54    21    64 1   
    55    22    23 1   
    56    22    26 1   
    57    23    24 1   
    58    23    65 1   
    59    23    66 1   
    60    24    25 1   
    61    24    29 1   
    62    24    67 1   
    63    25    68 1   
    64    26    27 1   
    65    26    69 1   
    66    26    70 1   
    67    27    28 1   
    68    27    29 1   
    69    27    71 1   
    70    28    72 1   
    71    29    30 2   
    72    30    31 1   
    73    30    73 1   
    74    31    32 1   
    75    31    74 1   
    76    31    75 1   
    77    32    76 1   
    78    42    77 1   
    79    43    77 1   
@<TRIPOS>SUBSTRUCTURE
     1 YI2         1 TEMP              0 ****  ****    0 ROOT
