@<TRIPOS>MOLECULE
YI2
   77    79     1     0     0
SMALL
No Charge or Current Charge


@<TRIPOS>ATOM
      1 C12         -1.5000     2.9280    -0.3640 c6         1 YI2      -0.059400
      2 C13         -1.3010     1.4180    -0.0430 c5         1 YI2      -0.007800
      3 C14         -0.0830     1.2950     0.9280 c5         1 YI2      -0.037500
      4 C15         -0.2550    -0.1610     1.4600 c5         1 YI2      -0.040200
      5 C16         -1.7680    -0.1640     1.6220 c2         1 YI2      -0.201200
      6 C21         -4.3520     1.7850     1.9920 c3         1 YI2      -0.084100
      7 C24         -7.3730    -1.0420    -0.5040 c3         1 YI2       0.202000
      8 C29         -8.6960    -0.8860     1.7740 c3         1 YI2      -0.085600
      9 C27         -7.8680    -1.7540     0.7970 c3         1 YI2      -0.086400
     10 C26         -8.5380    -0.4950    -1.3850 c3         1 YI2      -0.086400
     11 C28         -9.6160    -1.5230    -1.8080 c3         1 YI2      -0.085600
     12 O03         -6.6540    -2.0130    -1.2670 oh         1 YI2      -0.650000
     13 S22         -4.7590    -0.5350     0.4910 ss         1 YI2      -0.414000
     14 C20         -3.8410     1.0540     0.7360 c3         1 YI2       0.136500
     15 C17         -2.3560     0.7470     0.8270 c2         1 YI2      -0.119400
     16 C18         -1.1960     0.6110    -1.3800 c3         1 YI2      -0.078100
     17 C11         -0.2350     3.5210    -1.0630 c6         1 YI2      -0.071400
     18 C09          1.1130     3.1900    -0.3420 c6         1 YI2      -0.041200
     19 C08          1.1850     1.7500     0.1940 c2         1 YI2      -0.077400
     20 C07          2.2480     0.9020     0.1390 ce         1 YI2      -0.183000
     21 C06          3.5590     1.2080    -0.4690 ce         1 YI2      -0.171000
     22 C05          4.5950     0.3490    -0.6510 c2         1 YI2      -0.097400
     23 C10          5.9040     0.8100    -1.2860 c6         1 YI2      -0.078700
     24 C01          7.1380     0.4700    -0.4120 c6         1 YI2       0.213500
     25 O01          7.1620     1.2900     0.7620 oh         1 YI2      -0.654000
     26 C04          4.6160    -1.1370    -0.2880 c6         1 YI2      -0.078700
     27 C03          5.8190    -1.4750     0.6270 c6         1 YI2       0.213500
     28 O02          5.8230    -2.8830     0.9020 oh         1 YI2      -0.654000
     29 C02          7.1440    -1.0080    -0.0030 c2         1 YI2      -0.109400
     30 C30          8.2240    -1.8070    -0.1640 c2         1 YI2      -0.181200
     31 C31          9.5600    -1.4080    -0.7520 c3         1 YI2       0.194800
     32 O04         10.4680    -2.5090    -0.6900 oh         1 YI2      -0.652000
     33 H1          -2.3780     3.0700    -1.0080 hc         1 YI2       0.041200
     34 H2          -1.7010     3.4820     0.5640 hc         1 YI2       0.041200
     35 H3          -0.2250     1.9730     1.7790 hc         1 YI2       0.055700
     36 H4           0.0670    -0.9380     0.7580 hc         1 YI2       0.054700
     37 H5           0.2660    -0.3160     2.4110 hc         1 YI2       0.054700
     38 H6          -2.3150    -0.7950     2.3240 ha         1 YI2       0.198000
     39 H8          -4.2290     1.1570     2.8830 hc         1 YI2       0.041367
     40 H9          -3.7900     2.7130     2.1460 hc         1 YI2       0.041367
     41 H10         -5.4120     2.0430     1.8930 hc         1 YI2       0.041367
     42 H11         -6.1470     0.6560    -1.1140 h1         1 YI2       0.058700
     43 H12         -6.8130     0.8130     0.5170 h1         1 YI2       0.058700
     44 H13         -8.9990    -1.4840     2.6420 hc         1 YI2       0.034033
     45 H14         -8.1140    -0.0340     2.1450 hc         1 YI2       0.034033
     46 H15         -9.6070    -0.5060     1.2970 hc         1 YI2       0.034033
     47 H16         -8.4650    -2.6320     0.5260 hc         1 YI2       0.050700
     48 H17         -7.0040    -2.1490     1.3450 hc         1 YI2       0.050700
     49 H18         -9.0310     0.3340    -0.8630 hc         1 YI2       0.050700
     50 H19         -8.1120    -0.0600    -2.2980 hc         1 YI2       0.050700
     51 H20         -9.1660    -2.3750    -2.3320 hc         1 YI2       0.034033
     52 H21        -10.1690    -1.8990    -0.9400 hc         1 YI2       0.034033
     53 H22        -10.3390    -1.0530    -2.4850 hc         1 YI2       0.034033
     54 H23         -5.7380    -1.9750    -0.9130 ho         1 YI2       0.442000
     55 H24         -4.0270     1.6870    -0.1410 h1         1 YI2       0.065700
     56 H26         -2.0660     0.7990    -2.0200 hc         1 YI2       0.038033
     57 H27         -0.2990     0.8640    -1.9560 hc         1 YI2       0.038033
     58 H28         -1.1610    -0.4700    -1.2030 hc         1 YI2       0.038033
     59 H29         -0.1850     3.1520    -2.0960 hc         1 YI2       0.040200
     60 H30         -0.3430     4.6100    -1.1510 hc         1 YI2       0.040200
     61 H31          1.9350     3.4130    -1.0310 hc         1 YI2       0.045700
     62 H32          1.2350     3.8760     0.5070 hc         1 YI2       0.045700
     63 H33          2.1620    -0.0800     0.5930 ha         1 YI2       0.172000
     64 H34          3.7030     2.2380    -0.7900 ha         1 YI2       0.165000
     65 H35          6.0140     0.3160    -2.2610 hc         1 YI2       0.052700
     66 H36          5.8820     1.8880    -1.5000 hc         1 YI2       0.052700
     67 H37          8.0290     0.6890    -1.0180 h1         1 YI2       0.048200
     68 H38          7.1030     2.2190     0.4530 ho         1 YI2       0.443500
     69 H39          3.6900    -1.4630     0.1970 hc         1 YI2       0.052700
     70 H40          4.6890    -1.7250    -1.2130 hc         1 YI2       0.052700
     71 H41          5.6860    -0.9250     1.5710 h1         1 YI2       0.048200
     72 H42          4.9780    -3.0800     1.3610 ho         1 YI2       0.443500
     73 H43          8.1890    -2.8500     0.1490 ha         1 YI2       0.205000
     74 H44          9.4210    -1.0920    -1.7950 h1         1 YI2       0.021200
     75 H45          9.9650    -0.5530    -0.1930 h1         1 YI2       0.021200
     76 H46         11.3160    -2.2000    -1.0790 ho         1 YI2       0.439000
     77 C23         -6.3670     0.1040    -0.1900 c3         1 YI2       0.021600
@<TRIPOS>BOND
     1     1     2 1   
     2     1    17 1   
     3     1    33 1   
     4     1    34 1   
     5     2     3 1   
     6     2    15 1   
     7     2    16 1   
     8     3     4 1   
     9     3    19 1   
    10     3    35 1   
    11     4     5 1   
    12     4    36 1   
    13     4    37 1   
    14     5    15 2   
    15     5    38 1   
    16     6    14 1   
    17     6    39 1   
    18     6    40 1   
    19     6    41 1   
    20     7     9 1   
    21     7    10 1   
    22     7    12 1   
    23     7    77 1   
    24     8     9 1   
    25     8    44 1   
    26     8    45 1   
    27     8    46 1   
    28     9    47 1   
    29     9    48 1   
    30    10    11 1   
    31    10    49 1   
    32    10    50 1   
    33    11    51 1   
    34    11    52 1   
    35    11    53 1   
    36    12    54 1   
    37    13    14 1   
    38    13    77 1   
    39    14    15 1   
    40    14    55 1   
    41    16    56 1   
    42    16    57 1   
    43    16    58 1   
    44    17    18 1   
    45    17    59 1   
    46    17    60 1   
    47    18    19 1   
    48    18    61 1   
    49    18    62 1   
    50    19    20 2   
    51    20    21 1   
    52    20    63 1   
    53    21    22 2   
    54    21    64 1   
    55    22    23 1   
    56    22    26 1   
    57    23    24 1   
    58    23    65 1   
    59    23    66 1   
    60    24    25 1   
    61    24    29 1   
    62    24    67 1   
    63    25    68 1   
    64    26    27 1   
    65    26    69 1   
    66    26    70 1   
    67    27    28 1   
    68    27    29 1   
    69    27    71 1   
    70    28    72 1   
    71    29    30 2   
    72    30    31 1   
    73    30    73 1   
    74    31    32 1   
    75    31    74 1   
    76    31    75 1   
    77    32    76 1   
    78    42    77 1   
    79    43    77 1   
@<TRIPOS>SUBSTRUCTURE
     1 YI2         1 TEMP              0 ****  ****    0 ROOT
