@<TRIPOS>MOLECULE
YI3
   85    87     1     0     0
SMALL
bcc


@<TRIPOS>ATOM
      1 O03         -8.8770     0.2430     0.7230 oh         1 YI3      -0.596800
      2 C25         -8.4030     0.9540    -0.4150 c3         1 YI3       0.160800
      3 C26         -9.4200     0.8540    -1.5520 c3         1 YI3      -0.100100
      4 C27         -8.2690     2.4090     0.0210 c3         1 YI3      -0.100100
      5 C24         -7.0570     0.3880    -0.8900 c3         1 YI3      -0.103400
      6 C23         -5.9500     0.3390     0.1560 c3         1 YI3      -0.071400
      7 C22         -4.6570    -0.2340    -0.4150 c3         1 YI3      -0.079400
      8 C20         -3.5240    -0.4010     0.6100 c3         1 YI3      -0.047700
      9 C21         -3.8300    -1.5950     1.5130 c3         1 YI3      -0.087100
     10 C17         -2.1750    -0.5060    -0.1150 c5         1 YI3      -0.052700
     11 C16         -1.8420     0.7920    -0.9050 c5         1 YI3      -0.077400
     12 C15         -0.3210     1.0130    -0.8030 c5         1 YI3      -0.072400
     13 C14          0.1860    -0.3250    -0.2930 c5         1 YI3      -0.036500
     14 C13         -0.8980    -0.7700     0.7180 c5         1 YI3      -0.034000
     15 C18         -0.8680     0.1080     1.9720 c3         1 YI3      -0.079100
     16 C12         -0.6180    -2.2320     1.0670 c6         1 YI3      -0.062400
     17 C11          0.8010    -2.4200     1.6040 c6         1 YI3      -0.069400
     18 C09          1.9020    -1.8760     0.6770 c6         1 YI3      -0.022500
     19 C28          2.1360    -2.7630    -0.5600 c3         1 YI3      -0.071400
     20 C29          2.7420    -4.1260    -0.2440 c3         1 YI3      -0.076400
     21 C30          3.0250    -4.9460    -1.4980 c3         1 YI3      -0.076400
     22 C31          3.6270    -6.3100    -1.1890 c3         1 YI3      -0.088100
     23 C08          1.5750    -0.4620     0.2500 c2         1 YI3      -0.075400
     24 C07          2.4250     0.5760     0.3150 ce         1 YI3      -0.139000
     25 C06          3.7860     0.5630     0.8220 ce         1 YI3      -0.120000
     26 C05          4.6410     1.5970     0.8250 c2         1 YI3      -0.099400
     27 C10          6.0300     1.4640     1.3750 c6         1 YI3      -0.078700
     28 C04          4.3720     2.9580     0.2520 c6         1 YI3      -0.078700
     29 C03          5.3960     3.2890    -0.8410 c6         1 YI3       0.152600
     30 O02          5.2360     4.6090    -1.3210 oh         1 YI3      -0.598300
     31 C02          6.8120     3.1650    -0.2980 c6         1 YI3      -0.068400
     32 C01          7.0790     1.7950     0.3080 c6         1 YI3       0.152600
     33 O01          7.0650     0.8490    -0.7430 oh         1 YI3      -0.598300
     34 H1          -8.9470    -0.6870     0.4860 ho         1 YI3       0.399000
     35 H2         -10.3890     1.2540    -1.2470 hc         1 YI3       0.041033
     36 H3          -9.0880     1.4140    -2.4280 hc         1 YI3       0.041033
     37 H4          -9.5650    -0.1830    -1.8640 hc         1 YI3       0.041033
     38 H5          -9.2350     2.8180     0.3210 hc         1 YI3       0.041033
     39 H6          -7.5810     2.5200     0.8590 hc         1 YI3       0.041033
     40 H7          -7.8910     3.0160    -0.8030 hc         1 YI3       0.041033
     41 H8          -7.2230    -0.6270    -1.2740 hc         1 YI3       0.039200
     42 H9          -6.7210     0.9760    -1.7500 hc         1 YI3       0.039200
     43 H10         -5.7440     1.3430     0.5380 hc         1 YI3       0.045700
     44 H11         -6.2860    -0.2520     1.0120 hc         1 YI3       0.045700
     45 H12         -4.8550    -1.2090    -0.8760 hc         1 YI3       0.036200
     46 H13         -4.3350     0.4180    -1.2320 hc         1 YI3       0.036200
     47 H14         -3.4990     0.5030     1.2330 hc         1 YI3       0.048700
     48 H15         -3.1560    -1.6630     2.3650 hc         1 YI3       0.032700
     49 H16         -4.8410    -1.5310     1.9180 hc         1 YI3       0.032700
     50 H17         -3.7620    -2.5340     0.9580 hc         1 YI3       0.032700
     51 H18         -2.2590    -1.3340    -0.8330 hc         1 YI3       0.043700
     52 H19         -2.1530     0.7030    -1.9470 hc         1 YI3       0.040700
     53 H20         -2.3890     1.6460    -0.4960 hc         1 YI3       0.040700
     54 H21          0.1300     1.2960    -1.7560 hc         1 YI3       0.043700
     55 H22         -0.0960     1.8140    -0.0950 hc         1 YI3       0.043700
     56 H23          0.1030    -1.0300    -1.1350 hc         1 YI3       0.055700
     57 H24         -1.2150     1.1240     1.7760 hc         1 YI3       0.034367
     58 H25         -1.5070    -0.3010     2.7560 hc         1 YI3       0.034367
     59 H26          0.1370     0.1930     2.3890 hc         1 YI3       0.034367
     60 H27         -1.3250    -2.6140     1.8060 hc         1 YI3       0.041200
     61 H28         -0.7570    -2.8410     0.1660 hc         1 YI3       0.041200
     62 H29          0.8890    -1.9260     2.5760 hc         1 YI3       0.041200
     63 H30          0.9780    -3.4800     1.7990 hc         1 YI3       0.041200
     64 H31          2.8350    -1.8800     1.2480 hc         1 YI3       0.049700
     65 H32          1.1990    -2.9050    -1.1070 hc         1 YI3       0.042200
     66 H33          2.8080    -2.2330    -1.2420 hc         1 YI3       0.042200
     67 H34          3.6740    -3.9900     0.3170 hc         1 YI3       0.036700
     68 H35          2.0750    -4.6990     0.4080 hc         1 YI3       0.036700
     69 H36          2.0960    -5.0740    -2.0620 hc         1 YI3       0.037200
     70 H37          3.7020    -4.3860    -2.1510 hc         1 YI3       0.037200
     71 H38          3.8230    -6.8770    -2.1000 hc         1 YI3       0.031700
     72 H39          4.5720    -6.2110    -0.6520 hc         1 YI3       0.031700
     73 H40          2.9560    -6.9050    -0.5670 hc         1 YI3       0.031700
     74 H41          2.0630     1.5310    -0.0500 ha         1 YI3       0.121000
     75 H42          4.1490    -0.3680     1.2460 ha         1 YI3       0.117000
     76 H43          6.1690     2.1640     2.2080 hc         1 YI3       0.050950
     77 H44          6.2050     0.4610     1.7750 hc         1 YI3       0.050950
     78 H45          3.3620     3.0460    -0.1530 hc         1 YI3       0.050950
     79 H46          4.4670     3.7100     1.0460 hc         1 YI3       0.050950
     80 H47          5.2630     2.5690    -1.6580 h1         1 YI3       0.041700
     81 H48          4.3780     4.6670    -1.7540 ho         1 YI3       0.402000
     82 H49          7.5400     3.3720    -1.0870 hc         1 YI3       0.060700
     83 H50          6.9650     3.9200     0.4810 hc         1 YI3       0.060700
     84 H51          8.0650     1.8130     0.7930 h1         1 YI3       0.041700
     85 H52          7.1120    -0.0310    -0.3580 ho         1 YI3       0.402000
@<TRIPOS>BOND
     1     1     2 1   
     2     1    34 1   
     3     2     3 1   
     4     2     4 1   
     5     2     5 1   
     6     3    35 1   
     7     3    36 1   
     8     3    37 1   
     9     4    38 1   
    10     4    39 1   
    11     4    40 1   
    12     5     6 1   
    13     5    41 1   
    14     5    42 1   
    15     6     7 1   
    16     6    43 1   
    17     6    44 1   
    18     7     8 1   
    19     7    45 1   
    20     7    46 1   
    21     8     9 1   
    22     8    10 1   
    23     8    47 1   
    24     9    48 1   
    25     9    49 1   
    26     9    50 1   
    27    10    11 1   
    28    10    14 1   
    29    10    51 1   
    30    11    12 1   
    31    11    52 1   
    32    11    53 1   
    33    12    13 1   
    34    12    54 1   
    35    12    55 1   
    36    13    14 1   
    37    13    23 1   
    38    13    56 1   
    39    14    15 1   
    40    14    16 1   
    41    15    57 1   
    42    15    58 1   
    43    15    59 1   
    44    16    17 1   
    45    16    60 1   
    46    16    61 1   
    47    17    18 1   
    48    17    62 1   
    49    17    63 1   
    50    18    19 1   
    51    18    23 1   
    52    18    64 1   
    53    19    20 1   
    54    19    65 1   
    55    19    66 1   
    56    20    21 1   
    57    20    67 1   
    58    20    68 1   
    59    21    22 1   
    60    21    69 1   
    61    21    70 1   
    62    22    71 1   
    63    22    72 1   
    64    22    73 1   
    65    23    24 2   
    66    24    25 1   
    67    24    74 1   
    68    25    26 2   
    69    25    75 1   
    70    26    27 1   
    71    26    28 1   
    72    27    32 1   
    73    27    76 1   
    74    27    77 1   
    75    28    29 1   
    76    28    78 1   
    77    28    79 1   
    78    29    30 1   
    79    29    31 1   
    80    29    80 1   
    81    30    81 1   
    82    31    32 1   
    83    31    82 1   
    84    31    83 1   
    85    32    33 1   
    86    32    84 1   
    87    33    85 1   
@<TRIPOS>SUBSTRUCTURE
     1 YI3         1 TEMP              0 ****  ****    0 ROOT
