@<TRIPOS>MOLECULE
YI3
   85    87     1     0     0
SMALL
No Charge or Current Charge


@<TRIPOS>ATOM
      1 O03         -9.1580    -0.3010    -0.0260 oh         1 YI3      -0.659000
      2 C25         -8.6220     0.9040    -0.5750 c3         1 YI3       0.184000
      3 C26         -9.4960     1.2870    -1.7920 c3         1 YI3      -0.100100
      4 C27         -8.7150     2.0040     0.5100 c3         1 YI3      -0.100100
      5 C24         -7.1550     0.6420    -1.0310 c3         1 YI3      -0.103400
      6 C23         -6.1590     0.2040     0.0770 c3         1 YI3      -0.071400
      7 C22         -4.7440    -0.0980    -0.4810 c3         1 YI3      -0.079400
      8 C20         -3.6330    -0.3690     0.5850 c3         1 YI3      -0.047700
      9 C21         -3.9470    -1.6570     1.3890 c3         1 YI3      -0.087100
     10 C17         -2.1920    -0.4010    -0.1050 c5         1 YI3      -0.052700
     11 C16         -1.8220     0.9740    -0.7880 c5         1 YI3      -0.077400
     12 C15         -0.2710     1.1160    -0.6950 c5         1 YI3      -0.072400
     13 C14          0.1620    -0.3180    -0.2930 c5         1 YI3      -0.036500
     14 C13         -0.9000    -0.6770     0.8030 c5         1 YI3      -0.034000
     15 C18         -0.8030     0.2080     2.1220 c3         1 YI3      -0.079100
     16 C12         -0.6720    -2.1740     1.1970 c6         1 YI3      -0.062400
     17 C11          0.7520    -2.4190     1.7690 c6         1 YI3      -0.069400
     18 C09          1.8970    -1.9200     0.8350 c6         1 YI3      -0.022500
     19 C28          2.2080    -2.8870    -0.3510 c3         1 YI3      -0.071400
     20 C29          2.8160    -4.2550     0.0440 c3         1 YI3      -0.076400
     21 C30          3.1960    -5.1190    -1.1790 c3         1 YI3      -0.076400
     22 C31          3.7980    -6.4830    -0.7900 c3         1 YI3      -0.088100
     23 C08          1.5930    -0.5250     0.2610 c2         1 YI3      -0.075400
     24 C07          2.5020     0.4790     0.1040 ce         1 YI3      -0.189000
     25 C06          3.9330     0.4070     0.4700 ce         1 YI3      -0.170000
     26 C05          4.8120     1.4400     0.5240 c2         1 YI3      -0.099400
     27 C10          6.2770     1.2100     0.8970 c6         1 YI3      -0.078700
     28 C04          4.4900     2.9160     0.2610 c6         1 YI3      -0.078700
     29 C03          5.4420     3.5200    -0.8030 c6         1 YI3       0.175800
     30 O02          5.1740     4.9180    -0.9640 oh         1 YI3      -0.660500
     31 C02          6.9230     3.3130    -0.3970 c6         1 YI3      -0.068400
     32 C01          7.2540     1.8200    -0.1440 c6         1 YI3       0.175800
     33 O01          7.1980     1.0840    -1.3730 oh         1 YI3      -0.660500
     34 H1          -9.0160    -1.0040    -0.6940 ho         1 YI3       0.438000
     35 H2         -10.5420     1.4310    -1.4960 hc         1 YI3       0.041033
     36 H3          -9.1410     2.2210    -2.2450 hc         1 YI3       0.041033
     37 H4          -9.4670     0.5060    -2.5620 hc         1 YI3       0.041033
     38 H5          -9.7610     2.2180     0.7590 hc         1 YI3       0.041033
     39 H6          -8.2130     1.6970     1.4350 hc         1 YI3       0.041033
     40 H7          -8.2520     2.9340     0.1600 hc         1 YI3       0.041033
     41 H8          -7.1590    -0.1260    -1.8150 hc         1 YI3       0.039200
     42 H9          -6.7690     1.5540    -1.5030 hc         1 YI3       0.039200
     43 H10         -6.0770     0.9950     0.8310 hc         1 YI3       0.045700
     44 H11         -6.5600    -0.6830     0.5790 hc         1 YI3       0.045700
     45 H12         -4.8030    -0.9540    -1.1650 hc         1 YI3       0.036200
     46 H13         -4.4530     0.7630    -1.0930 hc         1 YI3       0.036200
     47 H14         -3.7210     0.4590     1.3220 hc         1 YI3       0.048700
     48 H15         -3.3520    -1.6900     2.3060 hc         1 YI3       0.032700
     49 H16         -4.9910    -1.6980     1.7150 hc         1 YI3       0.032700
     50 H17         -3.7410    -2.5550     0.7940 hc         1 YI3       0.032700
     51 H18         -2.2590    -1.1770    -0.8780 hc         1 YI3       0.043700
     52 H19         -2.1580     0.9940    -1.8310 hc         1 YI3       0.040700
     53 H20         -2.3080     1.8210    -0.2890 hc         1 YI3       0.040700
     54 H21          0.1680     1.4290    -1.6490 hc         1 YI3       0.043700
     55 H22          0.0080     1.8690     0.0510 hc         1 YI3       0.043700
     56 H23          0.0500    -0.9720    -1.1670 hc         1 YI3       0.055700
     57 H24         -1.1560     1.2320     1.9590 hc         1 YI3       0.034367
     58 H25         -1.4250    -0.2100     2.9230 hc         1 YI3       0.034367
     59 H26          0.2220     0.2810     2.5030 hc         1 YI3       0.034367
     60 H27         -1.3960    -2.5080     1.9470 hc         1 YI3       0.041200
     61 H28         -0.8300    -2.8150     0.3190 hc         1 YI3       0.041200
     62 H29          0.8450    -1.9170     2.7410 hc         1 YI3       0.041200
     63 H30          0.8750    -3.4850     1.9990 hc         1 YI3       0.041200
     64 H31          2.8040    -1.8840     1.4510 hc         1 YI3       0.049700
     65 H32          1.3010    -3.0630    -0.9410 hc         1 YI3       0.042200
     66 H33          2.9160    -2.3930    -1.0290 hc         1 YI3       0.042200
     67 H34          3.7090    -4.0890     0.6580 hc         1 YI3       0.036700
     68 H35          2.1020    -4.8150     0.6580 hc         1 YI3       0.036700
     69 H36          2.3050    -5.2870    -1.7970 hc         1 YI3       0.037200
     70 H37          3.9190    -4.5750    -1.7990 hc         1 YI3       0.037200
     71 H38          4.0520    -7.0590    -1.6880 hc         1 YI3       0.031700
     72 H39          4.7120    -6.3490    -0.1980 hc         1 YI3       0.031700
     73 H40          3.0850    -7.0680    -0.1970 hc         1 YI3       0.031700
     74 H41          2.2000     1.4100    -0.3610 ha         1 YI3       0.171000
     75 H42          4.3160    -0.5870     0.6940 ha         1 YI3       0.167000
     76 H43          6.4680     1.6680     1.8770 hc         1 YI3       0.050950
     77 H44          6.4890     0.1390     1.0240 hc         1 YI3       0.050950
     78 H45          3.4520     3.0680    -0.0540 hc         1 YI3       0.050950
     79 H46          4.5960     3.4710     1.2030 hc         1 YI3       0.050950
     80 H47          5.2670     2.9980    -1.7570 h1         1 YI3       0.041700
     81 H48          4.2520     4.9910    -1.2970 ho         1 YI3       0.441000
     82 H49          7.5850     3.7120    -1.1780 hc         1 YI3       0.060700
     83 H50          7.1390     3.8880     0.5130 hc         1 YI3       0.060700
     84 H51          8.2730     1.7590     0.2670 h1         1 YI3       0.041700
     85 H52          7.3260     0.1390    -1.1400 ho         1 YI3       0.441000
@<TRIPOS>BOND
     1     1     2 1   
     2     1    34 1   
     3     2     3 1   
     4     2     4 1   
     5     2     5 1   
     6     3    35 1   
     7     3    36 1   
     8     3    37 1   
     9     4    38 1   
    10     4    39 1   
    11     4    40 1   
    12     5     6 1   
    13     5    41 1   
    14     5    42 1   
    15     6     7 1   
    16     6    43 1   
    17     6    44 1   
    18     7     8 1   
    19     7    45 1   
    20     7    46 1   
    21     8     9 1   
    22     8    10 1   
    23     8    47 1   
    24     9    48 1   
    25     9    49 1   
    26     9    50 1   
    27    10    11 1   
    28    10    14 1   
    29    10    51 1   
    30    11    12 1   
    31    11    52 1   
    32    11    53 1   
    33    12    13 1   
    34    12    54 1   
    35    12    55 1   
    36    13    14 1   
    37    13    23 1   
    38    13    56 1   
    39    14    15 1   
    40    14    16 1   
    41    15    57 1   
    42    15    58 1   
    43    15    59 1   
    44    16    17 1   
    45    16    60 1   
    46    16    61 1   
    47    17    18 1   
    48    17    62 1   
    49    17    63 1   
    50    18    19 1   
    51    18    23 1   
    52    18    64 1   
    53    19    20 1   
    54    19    65 1   
    55    19    66 1   
    56    20    21 1   
    57    20    67 1   
    58    20    68 1   
    59    21    22 1   
    60    21    69 1   
    61    21    70 1   
    62    22    71 1   
    63    22    72 1   
    64    22    73 1   
    65    23    24 2   
    66    24    25 1   
    67    24    74 1   
    68    25    26 2   
    69    25    75 1   
    70    26    27 1   
    71    26    28 1   
    72    27    32 1   
    73    27    76 1   
    74    27    77 1   
    75    28    29 1   
    76    28    78 1   
    77    28    79 1   
    78    29    30 1   
    79    29    31 1   
    80    29    80 1   
    81    30    81 1   
    82    31    32 1   
    83    31    82 1   
    84    31    83 1   
    85    32    33 1   
    86    32    84 1   
    87    33    85 1   
@<TRIPOS>SUBSTRUCTURE
     1 YI3         1 TEMP              0 ****  ****    0 ROOT
