@<TRIPOS>MOLECULE
YI4
   85    87     1     0     0
SMALL
bcc


@<TRIPOS>ATOM
      1 O03          8.3580    -3.2810     0.0830 oh         1 YI4      -0.597800
      2 C25          8.8360    -1.9920    -0.2850 c3         1 YI4       0.160800
      3 C26          9.4640    -1.3000     0.9240 c3         1 YI4      -0.120600
      4 C27          9.8800    -2.1220    -1.3950 c3         1 YI4      -0.120600
      5 C24          7.6280    -1.2190    -0.8200 c3         1 YI4      -0.060400
      6 C23          6.5040    -0.9550     0.1750 c3         1 YI4      -0.071400
      7 C22          5.3210    -0.2450    -0.4770 c3         1 YI4      -0.078400
      8 C20          4.2580     0.2490     0.5170 c3         1 YI4      -0.047700
      9 C21          4.7850     1.4780     1.2550 c3         1 YI4      -0.086100
     10 C17          2.9310     0.4970    -0.2120 c5         1 YI4      -0.052700
     11 C16          2.3620    -0.8040    -0.8430 c5         1 YI4      -0.077400
     12 C15          0.8260    -0.7130    -0.7750 c5         1 YI4      -0.072400
     13 C14          0.5770     0.7360    -0.3890 c5         1 YI4      -0.036500
     14 C13          1.7330     1.0690     0.5830 c5         1 YI4      -0.035000
     15 C18          1.5520     0.3320     1.9140 c3         1 YI4      -0.078100
     16 C12          1.7270     2.5840     0.7870 c6         1 YI4      -0.061400
     17 C11          0.3760     3.0720     1.3070 c6         1 YI4      -0.069400
     18 C09         -0.8290     2.6410     0.4580 c6         1 YI4      -0.020500
     19 C28         -0.9740     3.4780    -0.8310 c3         1 YI4      -0.043200
     20 C29         -1.2370     4.9230    -0.5530 c2         1 YI4      -0.166200
     21 C30         -0.4590     5.9280    -0.9410 c2         1 YI4      -0.220000
     22 C08         -0.7640     1.1680     0.1170 c2         1 YI4      -0.073400
     23 C07         -1.8080     0.3270     0.2000 ce         1 YI4      -0.141000
     24 C06         -3.1580     0.6650     0.6080 ce         1 YI4      -0.121000
     25 C05         -4.2000    -0.1750     0.7070 c2         1 YI4      -0.100400
     26 C10         -5.5610     0.3180     1.0960 c6         1 YI4      -0.078200
     27 C01         -6.5890    -0.0110     0.0060 c6         1 YI4       0.190300
     28 O01         -6.2890     0.6500    -1.2080 oh         1 YI4      -0.592300
     29 C04         -4.1760    -1.6430     0.4060 c6         1 YI4      -0.078200
     30 C03         -5.2090    -2.0030    -0.6780 c6         1 YI4       0.190300
     31 O02         -5.2560    -3.3900    -0.8940 oh         1 YI4      -0.592300
     32 C02         -6.5690    -1.4940    -0.2700 c2         1 YI4      -0.110400
     33 C32         -7.6170    -2.3000    -0.1190 c2         1 YI4      -0.131200
     34 C33         -8.9980    -1.9340     0.3240 c3         1 YI4       0.171600
     35 O04         -9.9130    -2.6180    -0.5090 oh         1 YI4      -0.589800
     36 H1           9.0990    -3.7850     0.4350 ho         1 YI4       0.399000
     37 H2          10.3620    -1.8330     1.2470 hc         1 YI4       0.040033
     38 H3           9.7590    -0.2780     0.6850 hc         1 YI4       0.040033
     39 H4           8.7780    -1.2630     1.7720 hc         1 YI4       0.040033
     40 H5           9.4640    -2.6220    -2.2710 hc         1 YI4       0.040033
     41 H6          10.2450    -1.1430    -1.7070 hc         1 YI4       0.040033
     42 H7          10.7440    -2.7000    -1.0560 hc         1 YI4       0.040033
     43 H8           7.9860    -0.2600    -1.2090 hc         1 YI4       0.043700
     44 H9           7.2310    -1.7620    -1.6850 hc         1 YI4       0.043700
     45 H10          6.1590    -1.8940     0.6150 hc         1 YI4       0.045200
     46 H11          6.8850    -0.3520     1.0030 hc         1 YI4       0.045200
     47 H12          5.6820     0.6170    -1.0510 hc         1 YI4       0.037200
     48 H13          4.8740    -0.9230    -1.2080 hc         1 YI4       0.037200
     49 H14          4.0910    -0.5480     1.2540 hc         1 YI4       0.048700
     50 H15          4.8320     2.3440     0.5900 hc         1 YI4       0.031700
     51 H16          4.1710     1.7500     2.1120 hc         1 YI4       0.031700
     52 H17          5.7920     1.3080     1.6380 hc         1 YI4       0.031700
     53 H18          3.1320     1.2150    -1.0210 hc         1 YI4       0.043700
     54 H19          2.7040    -0.9240    -1.8710 hc         1 YI4       0.042700
     55 H20          2.7230    -1.6810    -0.2990 hc         1 YI4       0.042700
     56 H21          0.3470    -0.9810    -1.7190 hc         1 YI4       0.043700
     57 H22          0.4300    -1.3940    -0.0180 hc         1 YI4       0.043700
     58 H23          0.7780     1.3380    -1.2900 hc         1 YI4       0.055700
     59 H24          1.7200    -0.7410     1.8130 hc         1 YI4       0.034033
     60 H25          2.2500     0.7010     2.6680 hc         1 YI4       0.034033
     61 H26          0.5460     0.4630     2.3130 hc         1 YI4       0.034033
     62 H27          2.5030     2.8980     1.4870 hc         1 YI4       0.041200
     63 H28          1.9620     3.0690    -0.1680 hc         1 YI4       0.041200
     64 H29          0.2300     2.7070     2.3270 hc         1 YI4       0.042700
     65 H30          0.3850     4.1620     1.3840 hc         1 YI4       0.042700
     66 H31         -1.7200     2.8370     1.0610 hc         1 YI4       0.049700
     67 H32         -0.0870     3.3820    -1.4620 hc         1 YI4       0.049200
     68 H33         -1.8120     3.0670    -1.4030 hc         1 YI4       0.049200
     69 H35         -2.1410     5.1460     0.0090 ha         1 YI4       0.112000
     70 H36          0.4540     5.7540    -1.5000 ha         1 YI4       0.111500
     71 H37         -0.7040     6.9580    -0.7150 ha         1 YI4       0.111500
     72 H39         -1.6340    -0.7050    -0.0870 ha         1 YI4       0.122000
     73 H40         -3.3580     1.7040     0.8500 ha         1 YI4       0.116000
     74 H41         -5.8910    -0.1690     2.0210 hc         1 YI4       0.052700
     75 H42         -5.5540     1.3940     1.2920 hc         1 YI4       0.052700
     76 H43         -7.5740     0.2950     0.3740 h1         1 YI4       0.048200
     77 H44         -6.0760     1.5680    -1.0080 ho         1 YI4       0.404000
     78 H45         -3.1890    -1.9820     0.0860 hc         1 YI4       0.052700
     79 H46         -4.4340    -2.2030     1.3120 hc         1 YI4       0.052700
     80 H47         -4.9150    -1.4830    -1.6010 h1         1 YI4       0.048200
     81 H48         -4.3930    -3.6700    -1.2160 ho         1 YI4       0.404000
     82 H49         -7.4820    -3.3620    -0.2990 ha         1 YI4       0.156000
     83 H50         -9.1220    -2.2370     1.3730 h1         1 YI4       0.021700
     84 H51         -9.1620    -0.8510     0.2920 h1         1 YI4       0.021700
     85 H52        -10.7960    -2.4870    -0.1500 ho         1 YI4       0.401000
@<TRIPOS>BOND
     1     1     2 1   
     2     1    36 1   
     3     2     3 1   
     4     2     4 1   
     5     2     5 1   
     6     3    37 1   
     7     3    38 1   
     8     3    39 1   
     9     4    40 1   
    10     4    41 1   
    11     4    42 1   
    12     5     6 1   
    13     5    43 1   
    14     5    44 1   
    15     6     7 1   
    16     6    45 1   
    17     6    46 1   
    18     7     8 1   
    19     7    47 1   
    20     7    48 1   
    21     8     9 1   
    22     8    10 1   
    23     8    49 1   
    24     9    50 1   
    25     9    51 1   
    26     9    52 1   
    27    10    11 1   
    28    10    14 1   
    29    10    53 1   
    30    11    12 1   
    31    11    54 1   
    32    11    55 1   
    33    12    13 1   
    34    12    56 1   
    35    12    57 1   
    36    13    14 1   
    37    13    22 1   
    38    13    58 1   
    39    14    15 1   
    40    14    16 1   
    41    15    59 1   
    42    15    60 1   
    43    15    61 1   
    44    16    17 1   
    45    16    62 1   
    46    16    63 1   
    47    17    18 1   
    48    17    64 1   
    49    17    65 1   
    50    18    19 1   
    51    18    22 1   
    52    18    66 1   
    53    19    20 1   
    54    19    67 1   
    55    19    68 1   
    56    20    21 2   
    57    20    69 1   
    58    21    70 1   
    59    21    71 1   
    60    22    23 2   
    61    23    24 1   
    62    23    72 1   
    63    24    25 2   
    64    24    73 1   
    65    25    26 1   
    66    25    29 1   
    67    26    27 1   
    68    26    74 1   
    69    26    75 1   
    70    27    28 1   
    71    27    32 1   
    72    27    76 1   
    73    28    77 1   
    74    29    30 1   
    75    29    78 1   
    76    29    79 1   
    77    30    31 1   
    78    30    32 1   
    79    30    80 1   
    80    31    81 1   
    81    32    33 2   
    82    33    34 1   
    83    33    82 1   
    84    34    35 1   
    85    34    83 1   
    86    34    84 1   
    87    35    85 1   
@<TRIPOS>SUBSTRUCTURE
     1 YI4         1 TEMP              0 ****  ****    0 ROOT
