@<TRIPOS>MOLECULE
YI4
   85    87     1     0     0
SMALL
No Charge or Current Charge


@<TRIPOS>ATOM
      1 O03          8.7210    -3.0460     0.6290 oh         1 YI4      -0.660000
      2 C25          9.0000    -2.0420    -0.3490 c3         1 YI4       0.184000
      3 C26          9.8870    -0.9620     0.3170 c3         1 YI4      -0.120600
      4 C27          9.7720    -2.7240    -1.5010 c3         1 YI4      -0.120600
      5 C24          7.6530    -1.4620    -0.8780 c3         1 YI4      -0.060400
      6 C23          6.7370    -0.7830     0.1750 c3         1 YI4      -0.071400
      7 C22          5.3960    -0.2900    -0.4290 c3         1 YI4      -0.078400
      8 C20          4.3450     0.2560     0.5930 c3         1 YI4      -0.047700
      9 C21          4.8730     1.5340     1.2930 c3         1 YI4      -0.086100
     10 C17          2.9330     0.4750    -0.1220 c5         1 YI4      -0.052700
     11 C16          2.3340    -0.8690    -0.6940 c5         1 YI4      -0.077400
     12 C15          0.7810    -0.7350    -0.6170 c5         1 YI4      -0.072400
     13 C14          0.5990     0.7800    -0.3420 c5         1 YI4      -0.036500
     14 C13          1.7050     1.0440     0.7380 c5         1 YI4      -0.035000
     15 C18          1.4540     0.3040     2.1250 c3         1 YI4      -0.078100
     16 C12          1.7360     2.5860     1.0020 c6         1 YI4      -0.061400
     17 C11          0.3760     3.1170     1.5340 c6         1 YI4      -0.069400
     18 C09         -0.8400     2.7370     0.6370 c6         1 YI4      -0.020500
     19 C28         -0.9840     3.6600    -0.6110 c3         1 YI4      -0.043200
     20 C29         -1.2570     5.1160    -0.2850 c2         1 YI4      -0.216200
     21 C30         -0.4480     6.1430    -0.5890 c2         1 YI4      -0.320000
     22 C08         -0.7770     1.2720     0.1700 c2         1 YI4      -0.073400
     23 C07         -1.8450     0.4300     0.0710 ce         1 YI4      -0.191000
     24 C06         -3.2430     0.7720     0.4070 ce         1 YI4      -0.171000
     25 C05         -4.2860    -0.0900     0.5180 c2         1 YI4      -0.100400
     26 C10         -5.6920     0.4050     0.8450 c6         1 YI4      -0.078200
     27 C01         -6.7440    -0.0870    -0.1820 c6         1 YI4       0.213500
     28 O01         -6.5660     0.5770    -1.4380 oh         1 YI4      -0.654500
     29 C04         -4.2260    -1.6100     0.3610 c6         1 YI4      -0.078200
     30 C03         -5.2370    -2.1030    -0.7040 c6         1 YI4       0.213500
     31 O02         -5.1760    -3.5340    -0.7870 oh         1 YI4      -0.654500
     32 C02         -6.6600    -1.6040    -0.3910 c2         1 YI4      -0.110400
     33 C32         -7.7430    -2.4120    -0.3270 c2         1 YI4      -0.181200
     34 C33         -9.1690    -1.9880    -0.0490 c3         1 YI4       0.194800
     35 O04        -10.0380    -3.1180    -0.1320 oh         1 YI4      -0.652000
     36 H1           9.5860    -3.3890     0.9380 ho         1 YI4       0.438000
     37 H2          10.8620    -1.3760     0.6030 hc         1 YI4       0.040033
     38 H3          10.0640    -0.1280    -0.3730 hc         1 YI4       0.040033
     39 H4           9.4200    -0.5620     1.2250 hc         1 YI4       0.040033
     40 H5           9.1730    -3.5220    -1.9570 hc         1 YI4       0.040033
     41 H6          10.0200    -1.9980    -2.2850 hc         1 YI4       0.040033
     42 H7          10.7100    -3.1670    -1.1440 hc         1 YI4       0.040033
     43 H8           7.8700    -0.7350    -1.6700 hc         1 YI4       0.043700
     44 H9           7.0880    -2.2730    -1.3560 hc         1 YI4       0.043700
     45 H10          6.5250    -1.4900     0.9860 hc         1 YI4       0.045200
     46 H11          7.2750     0.0640     0.6130 hc         1 YI4       0.045200
     47 H12          5.6030     0.4840    -1.1800 hc         1 YI4       0.037200
     48 H13          4.9620    -1.1350    -0.9750 hc         1 YI4       0.037200
     49 H14          4.2890    -0.5110     1.3960 hc         1 YI4       0.048700
     50 H15          4.8270     2.4000     0.6230 hc         1 YI4       0.031700
     51 H16          4.2900     1.7450     2.1940 hc         1 YI4       0.031700
     52 H17          5.9070     1.4230     1.6330 hc         1 YI4       0.031700
     53 H18          3.1340     1.1600    -0.9550 hc         1 YI4       0.043700
     54 H19          2.6650    -1.0340    -1.7260 hc         1 YI4       0.042700
     55 H20          2.6650    -1.7410    -0.1190 hc         1 YI4       0.042700
     56 H21          0.2990    -1.0480    -1.5500 hc         1 YI4       0.043700
     57 H22          0.3740    -1.3640     0.1830 hc         1 YI4       0.043700
     58 H23          0.8240     1.3290    -1.2650 hc         1 YI4       0.055700
     59 H24          1.6240    -0.7760     2.0530 hc         1 YI4       0.034033
     60 H25          2.1380     0.6740     2.8970 hc         1 YI4       0.034033
     61 H26          0.4320     0.4420     2.4940 hc         1 YI4       0.034033
     62 H27          2.5080     2.8540     1.7290 hc         1 YI4       0.041200
     63 H28          1.9980     3.1130     0.0750 hc         1 YI4       0.041200
     64 H29          0.2050     2.7310     2.5480 hc         1 YI4       0.042700
     65 H30          0.4330     4.2070     1.6560 hc         1 YI4       0.042700
     66 H31         -1.7370     2.9010     1.2450 hc         1 YI4       0.049700
     67 H32         -0.0840     3.5840    -1.2330 hc         1 YI4       0.049200
     68 H33         -1.8030     3.2870    -1.2380 hc         1 YI4       0.049200
     69 H35         -2.2010     5.2930     0.2360 ha         1 YI4       0.162000
     70 H36          0.5000     5.9940    -1.1090 ha         1 YI4       0.161500
     71 H37         -0.7060     7.1700    -0.3260 ha         1 YI4       0.161500
     72 H39         -1.7060    -0.5710    -0.3210 ha         1 YI4       0.172000
     73 H40         -3.4510     1.8300     0.5570 ha         1 YI4       0.166000
     74 H41         -5.9720     0.0360     1.8420 hc         1 YI4       0.052700
     75 H42         -5.7200     1.5010     0.9150 hc         1 YI4       0.052700
     76 H43         -7.7320     0.1760     0.2230 h1         1 YI4       0.048200
     77 H44         -6.5690     1.5390    -1.2470 ho         1 YI4       0.443000
     78 H45         -3.2230    -1.9650     0.1060 hc         1 YI4       0.052700
     79 H46         -4.4660    -2.0730     1.3280 hc         1 YI4       0.052700
     80 H47         -4.9380    -1.6730    -1.6720 h1         1 YI4       0.048200
     81 H48         -4.2580    -3.7580    -1.0540 ho         1 YI4       0.443000
     82 H49         -7.6410    -3.4840    -0.4910 ha         1 YI4       0.206000
     83 H50         -9.2270    -1.5390     0.9520 h1         1 YI4       0.021700
     84 H51         -9.4710    -1.2240    -0.7770 h1         1 YI4       0.021700
     85 H52        -10.9470    -2.7910     0.0520 ho         1 YI4       0.440000
@<TRIPOS>BOND
     1     1     2 1   
     2     1    36 1   
     3     2     3 1   
     4     2     4 1   
     5     2     5 1   
     6     3    37 1   
     7     3    38 1   
     8     3    39 1   
     9     4    40 1   
    10     4    41 1   
    11     4    42 1   
    12     5     6 1   
    13     5    43 1   
    14     5    44 1   
    15     6     7 1   
    16     6    45 1   
    17     6    46 1   
    18     7     8 1   
    19     7    47 1   
    20     7    48 1   
    21     8     9 1   
    22     8    10 1   
    23     8    49 1   
    24     9    50 1   
    25     9    51 1   
    26     9    52 1   
    27    10    11 1   
    28    10    14 1   
    29    10    53 1   
    30    11    12 1   
    31    11    54 1   
    32    11    55 1   
    33    12    13 1   
    34    12    56 1   
    35    12    57 1   
    36    13    14 1   
    37    13    22 1   
    38    13    58 1   
    39    14    15 1   
    40    14    16 1   
    41    15    59 1   
    42    15    60 1   
    43    15    61 1   
    44    16    17 1   
    45    16    62 1   
    46    16    63 1   
    47    17    18 1   
    48    17    64 1   
    49    17    65 1   
    50    18    19 1   
    51    18    22 1   
    52    18    66 1   
    53    19    20 1   
    54    19    67 1   
    55    19    68 1   
    56    20    21 2   
    57    20    69 1   
    58    21    70 1   
    59    21    71 1   
    60    22    23 2   
    61    23    24 1   
    62    23    72 1   
    63    24    25 2   
    64    24    73 1   
    65    25    26 1   
    66    25    29 1   
    67    26    27 1   
    68    26    74 1   
    69    26    75 1   
    70    27    28 1   
    71    27    32 1   
    72    27    76 1   
    73    28    77 1   
    74    29    30 1   
    75    29    78 1   
    76    29    79 1   
    77    30    31 1   
    78    30    32 1   
    79    30    80 1   
    80    31    81 1   
    81    32    33 2   
    82    33    34 1   
    83    33    82 1   
    84    34    35 1   
    85    34    83 1   
    86    34    84 1   
    87    35    85 1   
@<TRIPOS>SUBSTRUCTURE
     1 YI4         1 TEMP              0 ****  ****    0 ROOT
