@<TRIPOS>MOLECULE
YI5
   37    39     1     0     0
SMALL
No Charge or Current Charge


@<TRIPOS>ATOM
      1 N1          -0.0800     4.0860     1.2870 nc         1 YI5      -0.138100
      2 N2          -1.0890     3.2880     1.0350 nd         1 YI5      -0.360000
      3 C3          -0.7140     1.9760     0.7680 cd         1 YI5       0.315500
      4 C4           0.6600     1.8400     0.8060 cc         1 YI5      -0.181000
      5 C6          -1.7430     0.9710     0.3720 ca         1 YI5      -0.259500
      6 C7           1.3700     0.5660     0.7330 ca         1 YI5      -0.038000
      7 C12          2.4470     0.4170    -0.1570 ca         1 YI5      -0.159000
      8 C13          3.1470    -0.8100    -0.2370 ca         1 YI5       0.113100
      9 C14          2.7630    -1.8910     0.5930 ca         1 YI5       0.131100
     10 C15          1.6880    -1.7300     1.4970 ca         1 YI5      -0.176000
     11 C16          1.0030    -0.5060     1.5670 ca         1 YI5      -0.073000
     12 C21         -3.1120     1.1200     0.7130 ca         1 YI5       0.235100
     13 C22         -4.0660     0.1730     0.3190 ca         1 YI5      -0.265000
     14 C23         -3.6920    -0.9320    -0.4530 ca         1 YI5       0.202100
     15 C24         -2.3490    -1.0800    -0.8470 ca         1 YI5       0.028000
     16 C25         -1.3930    -0.1320    -0.4480 ca         1 YI5      -0.007000
     17 O29         -4.6390    -1.8410    -0.8290 oh         1 YI5      -0.509100
     18 O30         -3.5460     2.1640     1.4660 oh         1 YI5      -0.541100
     19 O33          3.4600    -3.0850     0.4940 os         1 YI5      -0.317100
     20 S1           1.4170     3.3480     1.1960 ss         1 YI5       0.318100
     21 C34          3.1350    -4.2370     1.2910 c3         1 YI5       0.143900
     22 Cl          -1.8380    -2.4370    -1.8540 cl         1 YI5      -0.181000
     23 CAB          4.6650     0.0480    -1.9960 c3         1 YI5       0.143900
     24 OAN          4.2060    -0.9900    -1.1130 os         1 YI5      -0.318100
     25 H25         -0.3820    -0.2600    -0.8180 ha         1 YI5       0.138000
     26 H12          2.7200     1.2590    -0.7860 ha         1 YI5       0.124000
     27 H16          0.1800    -0.3910     2.2700 ha         1 YI5       0.127000
     28 H15          1.3720    -2.5370     2.1510 ha         1 YI5       0.126000
     29 H22         -5.1020     0.3080     0.6170 ha         1 YI5       0.135000
     30 H30         -2.7900     2.7940     1.5260 ho         1 YI5       0.512000
     31 H29         -5.5010    -1.5560    -0.4610 ho         1 YI5       0.473000
     32 H341         3.8090    -5.0680     1.0490 h1         1 YI5       0.043700
     33 H342         3.2400    -4.0150     2.3600 h1         1 YI5       0.043700
     34 H343         2.1060    -4.5680     1.0970 h1         1 YI5       0.043700
     35 HAB1         5.5090    -0.3110    -2.5970 h1         1 YI5       0.042367
     36 HAB2         3.8660     0.3570    -2.6830 h1         1 YI5       0.042367
     37 HAB3         5.0010     0.9240    -1.4270 h1         1 YI5       0.042367
@<TRIPOS>BOND
     1     1     2 2   
     2     1    20 1   
     3     2     3 1   
     4     3     4 2   
     5     3     5 1   
     6     4     6 1   
     7     4    20 1   
     8     5    12 ar  
     9     5    16 ar  
    10     6     7 ar  
    11     6    11 ar  
    12     7     8 ar  
    13     7    26 1   
    14     8     9 ar  
    15     8    24 1   
    16     9    10 ar  
    17     9    19 1   
    18    10    11 ar  
    19    10    28 1   
    20    11    27 1   
    21    12    13 ar  
    22    12    18 1   
    23    13    14 ar  
    24    13    29 1   
    25    14    15 ar  
    26    14    17 1   
    27    15    16 ar  
    28    15    22 1   
    29    16    25 1   
    30    17    31 1   
    31    18    30 1   
    32    19    21 1   
    33    21    32 1   
    34    21    33 1   
    35    21    34 1   
    36    23    24 1   
    37    23    35 1   
    38    23    36 1   
    39    23    37 1   
@<TRIPOS>SUBSTRUCTURE
     1 YI5         1 TEMP              0 ****  ****    0 ROOT
