@<TRIPOS>MOLECULE
YI5
   37    39     1     0     0
SMALL
bcc


@<TRIPOS>ATOM
      1 N1          -0.0960     3.9890     1.1610 nc         1 YI5      -0.138100
      2 N2          -1.0640     3.2150     0.8940 nd         1 YI5      -0.360000
      3 C3          -0.7450     1.9100     0.6610 cd         1 YI5       0.380800
      4 C4           0.6090     1.6730     0.7930 cc         1 YI5      -0.101400
      5 C6          -1.8230     0.9850     0.3020 ca         1 YI5      -0.259500
      6 C7           1.3810     0.4330     0.7170 ca         1 YI5      -0.038000
      7 C12          2.4990     0.3550    -0.1240 ca         1 YI5      -0.177000
      8 C13          3.2410    -0.8090    -0.2010 ca         1 YI5       0.113100
      9 C14          2.8690    -1.9260     0.5800 ca         1 YI5       0.131100
     10 C15          1.7690    -1.8350     1.4190 ca         1 YI5      -0.194000
     11 C16          1.0280    -0.6600     1.4890 ca         1 YI5      -0.091000
     12 C21         -3.1600     1.2440     0.6620 ca         1 YI5       0.235100
     13 C22         -4.1570     0.3240     0.3470 ca         1 YI5      -0.283000
     14 C23         -3.8690    -0.8410    -0.3460 ca         1 YI5       0.202100
     15 C24         -2.5500    -1.0750    -0.7440 ca         1 YI5      -0.063600
     16 C25         -1.5580    -0.1750    -0.4270 ca         1 YI5      -0.025000
     17 O29         -4.7960    -1.7460    -0.6730 oh         1 YI5      -0.470100
     18 O30         -3.5470     2.3470     1.3140 oh         1 YI5      -0.502100
     19 O33          3.6390    -3.0130     0.4330 os         1 YI5      -0.293900
     20 S1           1.3440     3.1590     1.1640 ss         1 YI5       0.173200
     21 C34          3.3270    -4.1660     1.1910 c3         1 YI5       0.120700
     22 CL          -2.1800    -2.5020    -1.6500 cl         1 YI5      -0.089400
     23 CAB          4.7260     0.0910    -1.8080 c3         1 YI5       0.120700
     24 OAN          4.3190    -0.9820    -0.9810 os         1 YI5      -0.294900
     25 H25         -0.5520    -0.3810    -0.7620 ha         1 YI5       0.156000
     26 H12          2.7620     1.2120    -0.7310 ha         1 YI5       0.142000
     27 H16          0.1760    -0.6090     2.1550 ha         1 YI5       0.145000
     28 H15          1.4710    -2.6730     2.0330 ha         1 YI5       0.144000
     29 H22         -5.1780     0.5410     0.6410 ha         1 YI5       0.153000
     30 H30         -2.8260     3.0080     1.2970 ho         1 YI5       0.473000
     31 H29         -5.6630    -1.4740    -0.3480 ho         1 YI5       0.434000
     32 H341         4.0600    -4.9200     0.9180 h1         1 YI5       0.043700
     33 H342         3.3970    -3.9780     2.2650 h1         1 YI5       0.043700
     34 H343         2.3280    -4.5450     0.9630 h1         1 YI5       0.043700
     35 HAB1         5.5960    -0.2570    -2.3580 h1         1 YI5       0.042367
     36 HAB2         3.9460     0.3710    -2.5210 h1         1 YI5       0.042367
     37 HAB3         5.0060     0.9720    -1.2250 h1         1 YI5       0.042367
@<TRIPOS>BOND
     1     1     2 2   
     2     1    20 1   
     3     2     3 1   
     4     3     4 2   
     5     3     5 1   
     6     4     6 1   
     7     4    20 1   
     8     5    12 ar  
     9     5    16 ar  
    10     6     7 ar  
    11     6    11 ar  
    12     7     8 ar  
    13     7    26 1   
    14     8     9 ar  
    15     8    24 1   
    16     9    10 ar  
    17     9    19 1   
    18    10    11 ar  
    19    10    28 1   
    20    11    27 1   
    21    12    13 ar  
    22    12    18 1   
    23    13    14 ar  
    24    13    29 1   
    25    14    15 ar  
    26    14    17 1   
    27    15    16 ar  
    28    15    22 1   
    29    16    25 1   
    30    17    31 1   
    31    18    30 1   
    32    19    21 1   
    33    21    32 1   
    34    21    33 1   
    35    21    34 1   
    36    23    24 1   
    37    23    35 1   
    38    23    36 1   
    39    23    37 1   
@<TRIPOS>SUBSTRUCTURE
     1 YI5         1 TEMP              0 ****  ****    0 ROOT
