@<TRIPOS>MOLECULE
YI6
   24    24     1     0     0
SMALL
No Charge or Current Charge


@<TRIPOS>ATOM
      1 C12          0.8050     1.4280    -0.1120 ca         1 YI6      -0.172500
      2 C13         -0.5720     1.4060     0.1740 ca         1 YI6      -0.081000
      3 C5          -1.1770     0.2330     0.6640 ca         1 YI6      -0.017300
      4 C6          -0.3890    -0.9180     0.8610 ca         1 YI6      -0.081000
      5 C7           0.9880    -0.8980     0.5750 ca         1 YI6      -0.172500
      6 C8           1.5910     0.2820     0.0850 ca         1 YI6       0.095100
      7 C2          -3.4560    -0.2240    -0.2700 c          1 YI6       0.723000
      8 O9           2.9350     0.3620    -0.2130 os         1 YI6      -0.364100
      9 C10          3.8250    -0.7560    -0.0450 c3         1 YI6       0.169600
     10 C11          5.2300    -0.3030    -0.4720 c3         1 YI6      -0.091100
     11 O1          -3.7820     0.6380    -1.0730 o          1 YI6      -0.728000
     12 O3          -3.6190    -1.4210    -0.4620 o          1 YI6      -0.728000
     13 C4          -2.6710     0.2080     0.9780 c3         1 YI6      -0.185100
     14 H6          -0.8450    -1.8310     1.2360 ha         1 YI6       0.107000
     15 H7           1.5660    -1.8020     0.7380 ha         1 YI6       0.098000
     16 H13         -1.1680     2.3020     0.0140 ha         1 YI6       0.107000
     17 H12          1.2630     2.3380    -0.4900 ha         1 YI6       0.098000
     18 H41C        -2.8180    -0.5180     1.7860 hc         1 YI6       0.029700
     19 H42C        -2.9560     1.2270     1.2680 hc         1 YI6       0.029700
     20 H111         5.2330     0.0140    -1.5220 hc         1 YI6       0.036700
     21 H112         5.5720     0.5340     0.1490 hc         1 YI6       0.036700
     22 H113         5.9440    -1.1270    -0.3600 hc         1 YI6       0.036700
     23 H101         3.8490    -1.0810     1.0030 h1         1 YI6       0.026700
     24 H102         3.5090    -1.6020    -0.6700 h1         1 YI6       0.026700
@<TRIPOS>BOND
     1     1     2 ar  
     2     1     6 ar  
     3     1    17 1   
     4     2     3 ar  
     5     2    16 1   
     6     3     4 ar  
     7     3    13 1   
     8     4     5 ar  
     9     4    14 1   
    10     5     6 ar  
    11     5    15 1   
    12     6     8 1   
    13     7    11 1   
    14     7    12 1   
    15     7    13 1   
    16     8     9 1   
    17     9    10 1   
    18     9    23 1   
    19     9    24 1   
    20    10    20 1   
    21    10    21 1   
    22    10    22 1   
    23    13    18 1   
    24    13    19 1   
@<TRIPOS>SUBSTRUCTURE
     1 YI6         1 TEMP              0 ****  ****    0 ROOT
