@<TRIPOS>MOLECULE
YI6
   24    24     1     0     0
SMALL
abcg2


@<TRIPOS>ATOM
      1 C12          0.8560     1.4030    -0.1880 ca         1 YI6      -0.172500
      2 C13         -0.5000     1.3930     0.0910 ca         1 YI6      -0.081000
      3 C5          -1.1330     0.2680     0.6200 ca         1 YI6      -0.017300
      4 C6          -0.3430    -0.8480     0.8620 ca         1 YI6      -0.081000
      5 C7           1.0220    -0.8620     0.5930 ca         1 YI6      -0.172500
      6 C8           1.6330     0.2700     0.0610 ca         1 YI6       0.095100
      7 C2          -3.4860    -0.2130    -0.2810 c          1 YI6       0.723000
      8 O9           2.9470     0.3660    -0.2360 os         1 YI6      -0.364100
      9 C10          3.7830    -0.7580    -0.0040 c3         1 YI6       0.169600
     10 C11          5.1870    -0.3920    -0.4220 c3         1 YI6      -0.091100
     11 O1          -4.7110    -0.0230    -0.1410 o          1 YI6      -0.728000
     12 O3          -2.9190    -0.7580    -1.2440 o          1 YI6      -0.728000
     13 C4          -2.6030     0.2680     0.8980 c3         1 YI6      -0.185100
     14 H6          -0.7950    -1.7400     1.2790 ha         1 YI6       0.107000
     15 H7           1.5870    -1.7600     0.8080 ha         1 YI6       0.098000
     16 H13         -1.0800     2.2870    -0.1100 ha         1 YI6       0.107000
     17 H12          1.3230     2.2900    -0.5960 ha         1 YI6       0.098000
     18 H41C        -2.8200    -0.3830     1.7520 hc         1 YI6       0.029700
     19 H42C        -2.9310     1.2670     1.1960 hc         1 YI6       0.029700
     20 H111         5.2360    -0.1370    -1.4800 hc         1 YI6       0.036700
     21 H112         5.5670     0.4510     0.1570 hc         1 YI6       0.036700
     22 H113         5.8490    -1.2400    -0.2500 hc         1 YI6       0.036700
     23 H101         3.7610    -1.0360     1.0550 h1         1 YI6       0.026700
     24 H102         3.4270    -1.6210    -0.5780 h1         1 YI6       0.026700
@<TRIPOS>BOND
     1     1     2 ar  
     2     1     6 ar  
     3     1    17 1   
     4     2     3 ar  
     5     2    16 1   
     6     3     4 ar  
     7     3    13 1   
     8     4     5 ar  
     9     4    14 1   
    10     5     6 ar  
    11     5    15 1   
    12     6     8 1   
    13     7    11 1   
    14     7    12 1   
    15     7    13 1   
    16     8     9 1   
    17     9    10 1   
    18     9    23 1   
    19     9    24 1   
    20    10    20 1   
    21    10    21 1   
    22    10    22 1   
    23    13    18 1   
    24    13    19 1   
@<TRIPOS>SUBSTRUCTURE
     1 YI6         1 TEMP              0 ****  ****    0 ROOT
