@<TRIPOS>MOLECULE
YI9
   38    38     1     0     0
SMALL
abcg2


@<TRIPOS>ATOM
      1 C10        108.0330   128.6980   116.3410 c2         1 YI9       0.727200
      2 C15        106.2220   129.7230   117.3700 c          1 YI9       0.731400
      3 C01        115.3050   122.8710   112.1690 c3         1 YI9      -0.090100
      4 C02        115.1410   123.1720   113.6580 c3         1 YI9      -0.073400
      5 C03        113.7280   123.6060   114.0550 c3         1 YI9      -0.073400
      6 C04        113.2830   124.9390   113.4570 c3         1 YI9      -0.075400
      7 C05        111.8950   125.3700   113.9240 c3         1 YI9      -0.078400
      8 C06        111.4500   126.7010   113.3200 c3         1 YI9      -0.073400
      9 C07        110.0240   127.1180   113.6830 c3         1 YI9      -0.093400
     10 C08        109.8580   127.4560   115.1610 c3         1 YI9       0.224800
     11 N09        108.4750   127.8280   115.4440 nu         1 YI9      -0.880400
     12 C11        109.0460   129.4590   117.1460 c6         1 YI9      -0.274700
     13 C12        108.4590   130.4220   118.1440 c          1 YI9       0.579000
     14 O13        109.1590   131.1040   118.8740 o          1 YI9      -0.532000
     15 N14        107.1010   130.4790   118.1710 ns         1 YI9      -0.498500
     16 O16        105.0200   129.8970   117.5280 o          1 YI9      -0.512000
     17 N17        106.7310   128.8420   116.4690 ne         1 YI9      -0.769100
     18 H1         116.3120   122.5080   111.9510 hc         1 YI9       0.032033
     19 H2         114.5960   122.1030   111.8470 hc         1 YI9       0.032033
     20 H3         115.1340   123.7570   111.5560 hc         1 YI9       0.032033
     21 H4         115.4090   122.2810   114.2330 hc         1 YI9       0.038200
     22 H5         115.8510   123.9530   113.9530 hc         1 YI9       0.038200
     23 H6         113.0160   122.8250   113.7620 hc         1 YI9       0.036700
     24 H7         113.6720   123.6770   115.1470 hc         1 YI9       0.036700
     25 H8         113.2860   124.8790   112.3640 hc         1 YI9       0.040200
     26 H9         114.0120   125.7140   113.7240 hc         1 YI9       0.040200
     27 H10        111.8930   125.4320   115.0170 hc         1 YI9       0.037700
     28 H11        111.1670   124.5950   113.6580 hc         1 YI9       0.037700
     29 H12        111.5200   126.6330   112.2300 hc         1 YI9       0.046200
     30 H13        112.1470   127.4910   113.6230 hc         1 YI9       0.046200
     31 H14        109.7350   127.9930   113.0960 hc         1 YI9       0.053200
     32 H15        109.3290   126.3130   113.4210 hc         1 YI9       0.053200
     33 H16        110.1330   126.6050   115.7890 h1         1 YI9       0.053200
     34 H17        110.5130   128.2850   115.4230 h1         1 YI9       0.053200
     35 H18        107.7540   127.3190   114.9480 hn         1 YI9       0.514000
     36 H19        109.6940   128.7670   117.6890 hc         1 YI9       0.101200
     37 H20        109.7010   130.0290   116.4820 hc         1 YI9       0.101200
     38 H21        106.6690   131.1140   118.8300 hn         1 YI9       0.339500
@<TRIPOS>BOND
     1     1    11 1   
     2     1    12 1   
     3     1    17 2   
     4     2    15 1   
     5     2    16 2   
     6     2    17 1   
     7     3     4 1   
     8     3    18 1   
     9     3    19 1   
    10     3    20 1   
    11     4     5 1   
    12     4    21 1   
    13     4    22 1   
    14     5     6 1   
    15     5    23 1   
    16     5    24 1   
    17     6     7 1   
    18     6    25 1   
    19     6    26 1   
    20     7     8 1   
    21     7    27 1   
    22     7    28 1   
    23     8     9 1   
    24     8    29 1   
    25     8    30 1   
    26     9    10 1   
    27     9    31 1   
    28     9    32 1   
    29    10    11 1   
    30    10    33 1   
    31    10    34 1   
    32    11    35 1   
    33    12    13 1   
    34    12    36 1   
    35    12    37 1   
    36    13    14 2   
    37    13    15 1   
    38    15    38 1   
@<TRIPOS>SUBSTRUCTURE
     1 YI9         1 TEMP              0 ****  ****    0 ROOT
