@<TRIPOS>MOLECULE
YI9
   38    38     1     0     0
SMALL
No Charge or Current Charge


@<TRIPOS>ATOM
      1 C10        108.1200   128.8560   116.3130 c2         1 YI9       0.727200
      2 C15        106.2780   129.5670   117.5530 c          1 YI9       0.731400
      3 C01        115.2470   122.6680   112.3720 c3         1 YI9      -0.090100
      4 C02        115.1870   123.2860   113.7850 c3         1 YI9      -0.073400
      5 C03        113.7850   123.7870   114.2060 c3         1 YI9      -0.073400
      6 C04        113.2530   124.9730   113.3670 c3         1 YI9      -0.075400
      7 C05        111.8870   125.4960   113.8650 c3         1 YI9      -0.078400
      8 C06        111.3550   126.6820   113.0260 c3         1 YI9      -0.073400
      9 C07        109.9530   127.1830   113.4490 c3         1 YI9      -0.093400
     10 C08        109.9000   127.7930   114.8650 c3         1 YI9       0.224800
     11 N09        108.5560   128.3140   115.1430 nu         1 YI9      -0.880400
     12 C11        109.0530   129.0430   117.4570 c6         1 YI9      -0.274700
     13 C12        108.5120   130.1930   118.2460 c          1 YI9       0.579000
     14 O13        109.1920   131.1220   118.6460 o          1 YI9      -0.532000
     15 N14        107.1690   130.1660   118.3840 ns         1 YI9      -0.498500
     16 O16        105.0860   129.5580   117.7900 o          1 YI9      -0.512000
     17 N17        106.8560   129.0530   116.3950 ne         1 YI9      -0.769100
     18 H1         116.2460   122.2600   112.1780 hc         1 YI9       0.032033
     19 H2         114.5200   121.8520   112.2740 hc         1 YI9       0.032033
     20 H3         115.0350   123.4190   111.6030 hc         1 YI9       0.032033
     21 H4         115.5180   122.5300   114.5080 hc         1 YI9       0.038200
     22 H5         115.9050   124.1130   113.8480 hc         1 YI9       0.038200
     23 H6         113.0730   122.9540   114.1520 hc         1 YI9       0.036700
     24 H7         113.8300   124.0910   115.2590 hc         1 YI9       0.036700
     25 H8         113.1530   124.6650   112.3200 hc         1 YI9       0.040200
     26 H9         113.9840   125.7900   113.3950 hc         1 YI9       0.040200
     27 H10        111.9880   125.8020   114.9130 hc         1 YI9       0.037700
     28 H11        111.1570   124.6780   113.8370 hc         1 YI9       0.037700
     29 H12        111.3090   126.3770   111.9730 hc         1 YI9       0.046200
     30 H13        112.0680   127.5150   113.0790 hc         1 YI9       0.046200
     31 H14        109.6270   127.9410   112.7260 hc         1 YI9       0.053200
     32 H15        109.2380   126.3530   113.3820 hc         1 YI9       0.053200
     33 H16        110.1610   127.0240   115.6050 h1         1 YI9       0.053200
     34 H17        110.6400   128.6020   114.9360 h1         1 YI9       0.053200
     35 H18        107.8050   128.1160   114.4880 hn         1 YI9       0.514000
     36 H19        108.9590   128.1370   118.0650 hc         1 YI9       0.101200
     37 H20        110.0950   129.2240   117.1750 hc         1 YI9       0.101200
     38 H21        106.7720   130.7760   119.0810 hn         1 YI9       0.339500
@<TRIPOS>BOND
     1     1    11 1   
     2     1    12 1   
     3     1    17 2   
     4     2    15 1   
     5     2    16 2   
     6     2    17 1   
     7     3     4 1   
     8     3    18 1   
     9     3    19 1   
    10     3    20 1   
    11     4     5 1   
    12     4    21 1   
    13     4    22 1   
    14     5     6 1   
    15     5    23 1   
    16     5    24 1   
    17     6     7 1   
    18     6    25 1   
    19     6    26 1   
    20     7     8 1   
    21     7    27 1   
    22     7    28 1   
    23     8     9 1   
    24     8    29 1   
    25     8    30 1   
    26     9    10 1   
    27     9    31 1   
    28     9    32 1   
    29    10    11 1   
    30    10    33 1   
    31    10    34 1   
    32    11    35 1   
    33    12    13 1   
    34    12    36 1   
    35    12    37 1   
    36    13    14 2   
    37    13    15 1   
    38    15    38 1   
@<TRIPOS>SUBSTRUCTURE
     1 YI9         1 TEMP              0 ****  ****    0 ROOT
