@<TRIPOS>MOLECULE
YIC
   60    62     1     0     0
SMALL
bcc


@<TRIPOS>ATOM
      1 O15        -10.4120     6.6760    22.6830 o          1 YIC      -0.603100
      2 C14        -10.9240     5.9380    23.5110 c          1 YIC       0.679100
      3 C16        -10.5890     4.4580    23.5610 c3         1 YIC      -0.153400
      4 C17         -9.9170     3.9170    22.3020 c3         1 YIC      -0.056400
      5 C18        -10.8970     3.4710    21.2250 c5         1 YIC      -0.064700
      6 C22        -10.2210     2.8730    19.9900 c5         1 YIC      -0.077400
      7 C21        -11.3000     2.8820    18.8920 c5         1 YIC      -0.078900
      8 C20        -12.3920     3.8610    19.3860 c5         1 YIC      -0.078900
      9 C19        -11.7910     4.5490    20.6140 c5         1 YIC      -0.077400
     10 N13        -11.7770     6.4220    24.4560 n          1 YIC      -0.476800
     11 C12        -12.4820     5.6180    25.4460 c6         1 YIC       0.098000
     12 C11        -13.9750     5.5810    25.1600 c6         1 YIC      -0.098400
     13 C10        -14.5330     6.9970    25.0890 c6         1 YIC      -0.074400
     14 C9         -13.7410     7.8330    24.0910 c6         1 YIC      -0.074400
     15 C7         -12.2390     7.8000    24.3690 c6         1 YIC       0.010700
     16 C6         -11.8450     8.6300    25.5970 c          1 YIC       0.648100
     17 O8         -12.4920     9.6210    25.9160 o          1 YIC      -0.656100
     18 N5         -10.7300     8.2410    26.2190 ns         1 YIC      -0.521900
     19 C1         -10.1530     8.8970    27.3690 c3         1 YIC      -0.037300
     20 C2          -8.6490     8.5350    27.4420 c          1 YIC       0.927600
     21 O4          -7.8930     9.3900    27.9300 o          1 YIC      -0.823800
     22 O3          -8.3490     7.3950    27.0300 o          1 YIC      -0.823800
     23 C23        -10.8780     8.4420    28.6540 c3         1 YIC      -0.038100
     24 C24        -10.4940     9.2240    29.8760 ca         1 YIC      -0.032300
     25 C29        -11.0210    10.4980    30.0830 ca         1 YIC      -0.112000
     26 C28        -10.6760    11.2400    31.2040 ca         1 YIC      -0.137500
     27 C27         -9.7950    10.7170    32.1420 ca         1 YIC      -0.149000
     28 C26         -9.2670     9.4470    31.9490 ca         1 YIC      -0.137500
     29 C25         -9.6140     8.7100    30.8240 ca         1 YIC      -0.112000
     30 H1         -11.4820     3.8630    23.7620 hc         1 YIC       0.061200
     31 H2          -9.9380     4.3080    24.4280 hc         1 YIC       0.061200
     32 H3          -9.3140     3.0510    22.5900 hc         1 YIC       0.052700
     33 H4          -9.2200     4.6490    21.8900 hc         1 YIC       0.052700
     34 H5         -11.5520     2.7040    21.6620 hc         1 YIC       0.033700
     35 H6          -9.8130     1.8770    20.1750 hc         1 YIC       0.046950
     36 H7          -9.3800     3.5100    19.6990 hc         1 YIC       0.046950
     37 H8         -11.7160     1.8850    18.7400 hc         1 YIC       0.033450
     38 H9         -10.8840     3.1930    17.9330 hc         1 YIC       0.033450
     39 H10        -12.6950     4.5720    18.6180 hc         1 YIC       0.033450
     40 H11        -13.2890     3.3090    19.6750 hc         1 YIC       0.033450
     41 H12        -11.1780     5.4030    20.3120 hc         1 YIC       0.046950
     42 H13        -12.5540     4.9250    21.3000 hc         1 YIC       0.046950
     43 H14        -12.0650     4.6180    25.4900 h1         1 YIC       0.055700
     44 H15        -12.3130     6.0560    26.4360 h1         1 YIC       0.055700
     45 H16        -14.4750     5.0050    25.9410 hc         1 YIC       0.036700
     46 H17        -14.1490     5.0590    24.2130 hc         1 YIC       0.036700
     47 H18        -14.4850     7.4570    26.0810 hc         1 YIC       0.044200
     48 H19        -15.5870     6.9790    24.8060 hc         1 YIC       0.044200
     49 H20        -14.0890     8.8650    24.0800 hc         1 YIC       0.050200
     50 H21        -13.8970     7.4370    23.0830 hc         1 YIC       0.050200
     51 H22        -11.7230     8.2660    23.5280 h1         1 YIC       0.101700
     52 H23        -10.2440     7.4070    25.9200 hn         1 YIC       0.344500
     53 H24        -10.2700     9.9770    27.2610 h1         1 YIC       0.066700
     54 H26        -11.9530     8.5440    28.4880 hc         1 YIC       0.035200
     55 H27        -10.6810     7.3770    28.8050 hc         1 YIC       0.035200
     56 H28        -11.7160    10.9110    29.3600 ha         1 YIC       0.132000
     57 H29        -11.0980    12.2270    31.3480 ha         1 YIC       0.111500
     58 H30         -9.5260    11.2920    33.0190 ha         1 YIC       0.108000
     59 H31         -8.5820     9.0280    32.6760 ha         1 YIC       0.111500
     60 H32         -9.1970     7.7200    30.6810 ha         1 YIC       0.132000
@<TRIPOS>BOND
     1     1     2 2   
     2     2     3 1   
     3     2    10 1   
     4     3     4 1   
     5     3    30 1   
     6     3    31 1   
     7     4     5 1   
     8     4    32 1   
     9     4    33 1   
    10     5     6 1   
    11     5     9 1   
    12     5    34 1   
    13     6     7 1   
    14     6    35 1   
    15     6    36 1   
    16     7     8 1   
    17     7    37 1   
    18     7    38 1   
    19     8     9 1   
    20     8    39 1   
    21     8    40 1   
    22     9    41 1   
    23     9    42 1   
    24    10    11 1   
    25    10    15 1   
    26    11    12 1   
    27    11    43 1   
    28    11    44 1   
    29    12    13 1   
    30    12    45 1   
    31    12    46 1   
    32    13    14 1   
    33    13    47 1   
    34    13    48 1   
    35    14    15 1   
    36    14    49 1   
    37    14    50 1   
    38    15    16 1   
    39    15    51 1   
    40    16    17 2   
    41    16    18 1   
    42    18    19 1   
    43    18    52 1   
    44    19    20 1   
    45    19    23 1   
    46    19    53 1   
    47    20    21 1   
    48    20    22 1   
    49    23    24 1   
    50    23    54 1   
    51    23    55 1   
    52    24    25 ar  
    53    24    29 ar  
    54    25    26 ar  
    55    25    56 1   
    56    26    27 ar  
    57    26    57 1   
    58    27    28 ar  
    59    27    58 1   
    60    28    29 ar  
    61    28    59 1   
    62    29    60 1   
@<TRIPOS>SUBSTRUCTURE
     1 YIC         1 TEMP              0 ****  ****    0 ROOT
