@<TRIPOS>MOLECULE
YIC
   60    62     1     0     0
SMALL
No Charge or Current Charge


@<TRIPOS>ATOM
      1 O15        -10.5250     7.8440    22.7440 o          1 YIC      -0.603100
      2 C14        -10.3670     6.6520    22.9830 c          1 YIC       0.612100
      3 C16         -9.2580     5.8860    22.2310 c3         1 YIC      -0.153400
      4 C17         -9.6290     5.5230    20.7670 c3         1 YIC      -0.056400
      5 C18        -10.7570     4.4750    20.5650 c5         1 YIC      -0.064700
      6 C22        -10.8760     3.9760    19.1020 c5         1 YIC      -0.077400
      7 C21        -12.1550     3.0970    19.1630 c5         1 YIC      -0.078900
      8 C20        -13.0560     3.7880    20.2350 c5         1 YIC      -0.078900
      9 C19        -12.2120     4.9890    20.7490 c5         1 YIC      -0.077400
     10 N13        -11.2070     5.9920    23.9230 n          1 YIC      -0.409800
     11 C12        -11.0000     4.5700    24.3480 c6         1 YIC       0.098000
     12 C11        -12.2900     3.8500    24.8160 c6         1 YIC      -0.098400
     13 C10        -13.1050     4.6840    25.8210 c6         1 YIC      -0.074400
     14 C9         -13.4000     6.0650    25.2060 c6         1 YIC      -0.074400
     15 C7         -12.0760     6.8030    24.8500 c6         1 YIC       0.010700
     16 C6         -11.2950     7.3910    26.0760 c          1 YIC       0.581100
     17 O8         -10.1140     7.7120    26.0020 o          1 YIC      -0.656100
     18 N5         -12.0050     7.5680    27.2480 ns         1 YIC      -0.454900
     19 C1         -11.4670     8.1420    28.5050 c3         1 YIC      -0.037300
     20 C2         -12.3090     7.6490    29.7210 c          1 YIC       0.717000
     21 O4         -11.7290     7.0700    30.6280 o          1 YIC      -0.718500
     22 O3         -13.5290     7.7340    29.6510 o          1 YIC      -0.718500
     23 C23        -11.4010     9.6880    28.4380 c3         1 YIC      -0.038100
     24 C24        -10.6670    10.2940    29.6280 ca         1 YIC      -0.032300
     25 C29         -9.2630    10.2220    29.7040 ca         1 YIC      -0.094000
     26 C28         -8.5820    10.7800    30.8000 ca         1 YIC      -0.119500
     27 C27         -9.3010    11.4130    31.8260 ca         1 YIC      -0.131000
     28 C26        -10.7030    11.4880    31.7570 ca         1 YIC      -0.119500
     29 C25        -11.3840    10.9300    30.6610 ca         1 YIC      -0.094000
     30 H1          -8.9600     4.9710    22.7490 hc         1 YIC       0.061200
     31 H2          -8.3830     6.5460    22.1820 hc         1 YIC       0.061200
     32 H3          -8.7170     5.1420    20.2910 hc         1 YIC       0.052700
     33 H4          -9.8790     6.4450    20.2260 hc         1 YIC       0.052700
     34 H5         -10.5430     3.6340    21.2350 hc         1 YIC       0.033700
     35 H6          -9.9980     3.4030    18.7820 hc         1 YIC       0.046950
     36 H7         -10.9940     4.8080    18.3960 hc         1 YIC       0.046950
     37 H8         -11.9120     2.0710    19.4660 hc         1 YIC       0.033450
     38 H9         -12.6490     3.0310    18.1860 hc         1 YIC       0.033450
     39 H10        -14.0140     4.1180    19.8190 hc         1 YIC       0.033450
     40 H11        -13.2860     3.0930    21.0510 hc         1 YIC       0.033450
     41 H12        -12.4000     5.8920    20.1550 hc         1 YIC       0.046950
     42 H13        -12.4660     5.2300    21.7840 hc         1 YIC       0.046950
     43 H14        -10.5930     3.9720    23.5230 h1         1 YIC       0.055700
     44 H15        -10.2610     4.5540    25.1620 h1         1 YIC       0.055700
     45 H16        -12.0310     2.8770    25.2560 hc         1 YIC       0.036700
     46 H17        -12.9140     3.6320    23.9380 hc         1 YIC       0.036700
     47 H18        -12.5510     4.7880    26.7640 hc         1 YIC       0.044200
     48 H19        -14.0460     4.1690    26.0600 hc         1 YIC       0.044200
     49 H20        -14.0370     6.6640    25.8700 hc         1 YIC       0.050200
     50 H21        -13.9870     5.9280    24.2860 hc         1 YIC       0.050200
     51 H22        -12.3960     7.7070    24.3140 h1         1 YIC       0.101700
     52 H23        -12.9780     7.2820    27.2430 hn         1 YIC       0.344500
     53 H24        -10.4490     7.7560    28.6420 h1         1 YIC       0.066700
     54 H26        -10.8900     9.9860    27.5150 hc         1 YIC       0.035200
     55 H27        -12.4180    10.0920    28.3630 hc         1 YIC       0.035200
     56 H28         -8.6990     9.7330    28.9120 ha         1 YIC       0.114000
     57 H29         -7.4970    10.7210    30.8520 ha         1 YIC       0.093500
     58 H30         -8.7750    11.8450    32.6740 ha         1 YIC       0.090000
     59 H31        -11.2610    11.9780    32.5510 ha         1 YIC       0.093500
     60 H32        -12.4690    10.9910    30.6160 ha         1 YIC       0.114000
@<TRIPOS>BOND
     1     1     2 2   
     2     2     3 1   
     3     2    10 1   
     4     3     4 1   
     5     3    30 1   
     6     3    31 1   
     7     4     5 1   
     8     4    32 1   
     9     4    33 1   
    10     5     6 1   
    11     5     9 1   
    12     5    34 1   
    13     6     7 1   
    14     6    35 1   
    15     6    36 1   
    16     7     8 1   
    17     7    37 1   
    18     7    38 1   
    19     8     9 1   
    20     8    39 1   
    21     8    40 1   
    22     9    41 1   
    23     9    42 1   
    24    10    11 1   
    25    10    15 1   
    26    11    12 1   
    27    11    43 1   
    28    11    44 1   
    29    12    13 1   
    30    12    45 1   
    31    12    46 1   
    32    13    14 1   
    33    13    47 1   
    34    13    48 1   
    35    14    15 1   
    36    14    49 1   
    37    14    50 1   
    38    15    16 1   
    39    15    51 1   
    40    16    17 2   
    41    16    18 1   
    42    18    19 1   
    43    18    52 1   
    44    19    20 1   
    45    19    23 1   
    46    19    53 1   
    47    20    21 1   
    48    20    22 1   
    49    23    24 1   
    50    23    54 1   
    51    23    55 1   
    52    24    25 ar  
    53    24    29 ar  
    54    25    26 ar  
    55    25    56 1   
    56    26    27 ar  
    57    26    57 1   
    58    27    28 ar  
    59    27    58 1   
    60    28    29 ar  
    61    28    59 1   
    62    29    60 1   
@<TRIPOS>SUBSTRUCTURE
     1 YIC         1 TEMP              0 ****  ****    0 ROOT
