@<TRIPOS>MOLECULE
YID
   83    88     1     0     0
SMALL
abcg2


@<TRIPOS>ATOM
      1 C10         19.0900    25.6060    -1.5870 ca         1 YID      -0.074200
      2 C13         21.6710    25.7330    -2.5960 ca         1 YID      -0.025000
      3 C15         24.1170    26.4090    -2.4770 cc         1 YID       0.196300
      4 C20         24.2630    27.1980    -1.2330 c3         1 YID      -0.138400
      5 C21         20.6060    25.9860    -3.4480 ca         1 YID      -0.036000
      6 C24         17.1540    23.9790     0.3200 c6         1 YID      -0.090400
      7 C26         15.9120    24.9860     2.3080 c6         1 YID       0.167300
      8 C28         17.4050    26.4300     0.9020 c6         1 YID      -0.090400
      9 C02         14.6660    27.9620    -4.2500 c          1 YID       0.579000
     10 C03         14.0970    26.9570    -5.2230 c6         1 YID      -0.158400
     11 C04         13.9960    25.5520    -4.6600 c6         1 YID      -0.074400
     12 C05         15.3520    25.1650    -4.1060 c6         1 YID      -0.088400
     13 C06         15.7350    26.0830    -2.9520 c6         1 YID       0.129400
     14 C07         17.2040    25.9460    -2.6530 cc         1 YID       0.398800
     15 C09         19.3110    25.9140    -2.9380 ca         1 YID       0.064400
     16 C11         20.1480    25.3340    -0.7230 ca         1 YID      -0.113000
     17 C12         21.4240    25.3980    -1.2480 ca         1 YID      -0.090000
     18 C14         23.0540    25.8070    -3.0750 cd         1 YID      -0.173000
     19 C18         23.6180    25.2380    -4.2560 cd         1 YID       0.292300
     20 C19         22.9310    24.4450    -5.3100 c3         1 YID      -0.134400
     21 C23         17.0070    25.4130    -0.1800 c6         1 YID       0.089300
     22 C25         16.1770    23.7280     1.4760 c6         1 YID      -0.089900
     23 C27         17.1470    25.8810     2.3100 c6         1 YID      -0.089900
     24 C32         15.8340    28.4180    -2.2200 ca         1 YID      -0.055000
     25 C33         15.0040    28.6480    -1.1330 ca         1 YID      -0.113000
     26 C34         15.3600    29.5410    -0.1200 ca         1 YID      -0.067300
     27 C35         14.4060    29.7790     1.0480 c3         1 YID       0.001300
     28 C36         13.0640    30.2940     0.5100 c3         1 YID      -0.083767
     29 C37         14.9480    30.8050     2.0420 c3         1 YID      -0.083767
     30 C38         14.1790    28.4600     1.7960 c3         1 YID      -0.083767
     31 C39         16.5910    30.1820    -0.2320 ca         1 YID      -0.107000
     32 C40         17.4300    29.9470    -1.3150 ca         1 YID      -0.108000
     33 C41         17.0560    29.0690    -2.3180 ca         1 YID      -0.084000
     34 N08         18.1150    26.1140    -3.5710 nd         1 YID      -0.565100
     35 N17         24.8930    25.4820    -4.3270 nc         1 YID      -0.367300
     36 N22         17.7240    25.6420    -1.4270 na         1 YID      -0.164600
     37 N31         15.4290    27.4910    -3.2260 n          1 YID      -0.247400
     38 O01         14.4560    29.1570    -4.3790 o          1 YID      -0.543000
     39 O16         25.2080    26.2150    -3.2200 os         1 YID      -0.073700
     40 O29         15.5210    24.5680     3.5970 os         1 YID      -0.453000
     41 H1          24.8890    28.0760    -1.3950 hc         1 YID       0.063033
     42 H2          23.2880    27.5320    -0.8830 hc         1 YID       0.063033
     43 H3          24.7180    26.6060    -0.4360 hc         1 YID       0.063033
     44 H4          20.7670    26.2510    -4.4860 ha         1 YID       0.132000
     45 H5          16.9620    23.2780    -0.4930 hc         1 YID       0.059200
     46 H6          18.1800    23.8020     0.6510 hc         1 YID       0.059200
     47 H7          15.0850    25.5520     1.8510 h1         1 YID       0.030700
     48 H8          18.4570    26.7010     0.8140 hc         1 YID       0.059200
     49 H9          16.8420    27.3490     0.7380 hc         1 YID       0.059200
     50 H10         13.1280    27.3380    -5.5480 hc         1 YID       0.076200
     51 H11         14.7410    26.9560    -6.1070 hc         1 YID       0.076200
     52 H12         13.2340    25.5040    -3.8770 hc         1 YID       0.050200
     53 H13         13.6900    24.8550    -5.4410 hc         1 YID       0.050200
     54 H14         15.3610    24.1390    -3.7340 hc         1 YID       0.067700
     55 H15         16.1010    25.2300    -4.8970 hc         1 YID       0.067700
     56 H16         15.1460    25.7800    -2.0820 h1         1 YID       0.047700
     57 H17         20.0050    25.0700     0.3160 ha         1 YID       0.120000
     58 H18         22.2610    25.1670    -0.6020 ha         1 YID       0.114000
     59 H19         23.6530    23.9380    -5.9460 hc         1 YID       0.057367
     60 H20         22.2730    23.7000    -4.8640 hc         1 YID       0.057367
     61 H21         22.3150    25.0850    -5.9430 hc         1 YID       0.057367
     62 H22         15.9520    25.5650    -0.4070 h1         1 YID       0.062700
     63 H23         15.2310    23.3420     1.0900 hc         1 YID       0.055200
     64 H24         16.5930    22.9580     2.1290 hc         1 YID       0.055200
     65 H25         18.0080    25.2990     2.6550 hc         1 YID       0.055200
     66 H26         17.0350    26.7150     3.0050 hc         1 YID       0.055200
     67 H27         14.5060    25.0800     5.2700 h1         1 YID       0.029367
     68 H28         15.4150    26.4210     4.5650 h1         1 YID       0.029367
     69 H29         13.9150    25.8740     3.7990 h1         1 YID       0.029367
     70 H30         14.0580    28.1190    -1.0920 ha         1 YID       0.112000
     71 H31         12.3710    30.4710     1.3350 hc         1 YID       0.035478
     72 H32         13.1910    31.2360    -0.0270 hc         1 YID       0.035478
     73 H33         12.5910    29.5830    -0.1680 hc         1 YID       0.035478
     74 H34         14.2290    30.9360     2.8520 hc         1 YID       0.035478
     75 H35         15.8900    30.4860     2.4910 hc         1 YID       0.035478
     76 H36         15.1040    31.7820     1.5810 hc         1 YID       0.035478
     77 H37         13.4920    28.6130     2.6310 hc         1 YID       0.035478
     78 H38         13.7500    27.6880     1.1550 hc         1 YID       0.035478
     79 H39         15.1160    28.0750     2.2030 hc         1 YID       0.035478
     80 H40         16.9160    30.8790     0.5280 ha         1 YID       0.113000
     81 H41         18.3800    30.4600    -1.3770 ha         1 YID       0.116000
     82 H42         17.7020    28.8890    -3.1670 ha         1 YID       0.137000
     83 C30         14.8150    25.5360     4.3290 c3         1 YID       0.146900
@<TRIPOS>BOND
     1     1    15 ar  
     2     1    16 ar  
     3     1    36 1   
     4     2     5 ar  
     5     2    17 ar  
     6     2    18 1   
     7     3     4 1   
     8     3    18 2   
     9     3    39 1   
    10     4    41 1   
    11     4    42 1   
    12     4    43 1   
    13     5    15 ar  
    14     5    44 1   
    15     6    21 1   
    16     6    22 1   
    17     6    45 1   
    18     6    46 1   
    19     7    22 1   
    20     7    23 1   
    21     7    40 1   
    22     7    47 1   
    23     8    21 1   
    24     8    23 1   
    25     8    48 1   
    26     8    49 1   
    27     9    10 1   
    28     9    37 1   
    29     9    38 2   
    30    10    11 1   
    31    10    50 1   
    32    10    51 1   
    33    11    12 1   
    34    11    52 1   
    35    11    53 1   
    36    12    13 1   
    37    12    54 1   
    38    12    55 1   
    39    13    14 1   
    40    13    37 1   
    41    13    56 1   
    42    14    34 2   
    43    14    36 1   
    44    15    34 1   
    45    16    17 ar  
    46    16    57 1   
    47    17    58 1   
    48    18    19 1   
    49    19    20 1   
    50    19    35 2   
    51    20    59 1   
    52    20    60 1   
    53    20    61 1   
    54    21    36 1   
    55    21    62 1   
    56    22    63 1   
    57    22    64 1   
    58    23    65 1   
    59    23    66 1   
    60    24    25 ar  
    61    24    33 ar  
    62    24    37 1   
    63    25    26 ar  
    64    25    70 1   
    65    26    27 1   
    66    26    31 ar  
    67    27    28 1   
    68    27    29 1   
    69    27    30 1   
    70    28    71 1   
    71    28    72 1   
    72    28    73 1   
    73    29    74 1   
    74    29    75 1   
    75    29    76 1   
    76    30    77 1   
    77    30    78 1   
    78    30    79 1   
    79    31    32 ar  
    80    31    80 1   
    81    32    33 ar  
    82    32    81 1   
    83    33    82 1   
    84    35    39 1   
    85    40    83 1   
    86    67    83 1   
    87    68    83 1   
    88    69    83 1   
@<TRIPOS>SUBSTRUCTURE
     1 YID         1 TEMP              0 ****  ****    0 ROOT
