@<TRIPOS>MOLECULE
YID
   83    88     1     0     0
SMALL
No Charge or Current Charge


@<TRIPOS>ATOM
      1 C10         19.1840    25.6540    -1.6860 ca         1 YID      -0.074200
      2 C13         21.8430    25.6870    -2.5810 ca         1 YID      -0.025000
      3 C15         24.3780    25.9780    -2.3250 cc         1 YID       0.196300
      4 C20         24.5920    26.4710    -0.9200 c3         1 YID      -0.138400
      5 C21         20.7700    25.9210    -3.4780 ca         1 YID      -0.036000
      6 C24         17.1620    24.0840     0.2530 c6         1 YID      -0.090400
      7 C26         15.9930    25.1450     2.3320 c6         1 YID       0.167300
      8 C28         17.4820    26.5850     0.8110 c6         1 YID      -0.090400
      9 C02         14.2610    27.8460    -4.1030 c          1 YID       0.579000
     10 C03         13.7910    26.8820    -5.2040 c6         1 YID      -0.158400
     11 C04         14.0210    25.3960    -4.8800 c6         1 YID      -0.074400
     12 C05         15.4820    25.2100    -4.4480 c6         1 YID      -0.088400
     13 C06         15.7960    26.0280    -3.1650 c6         1 YID       0.129400
     14 C07         17.2880    25.9520    -2.8400 cc         1 YID       0.398800
     15 C09         19.4530    25.8950    -3.0000 ca         1 YID       0.064400
     16 C11         20.2060    25.4070    -0.7570 ca         1 YID      -0.113000
     17 C12         21.5380    25.4310    -1.2170 ca         1 YID      -0.090000
     18 C14         23.2490    25.7150    -3.0590 cd         1 YID      -0.173000
     19 C18         23.7500    25.3160    -4.3300 cd         1 YID       0.292300
     20 C19         22.9810    24.7880    -5.5130 c3         1 YID      -0.134400
     21 C23         17.0790    25.5390    -0.2760 c6         1 YID       0.089300
     22 C25         16.2180    23.8660     1.4720 c6         1 YID      -0.089900
     23 C27         17.2280    26.0850     2.2610 c6         1 YID      -0.089900
     24 C32         15.6880    28.2970    -2.1200 ca         1 YID      -0.055000
     25 C33         14.8030    28.6010    -1.0700 ca         1 YID      -0.113000
     26 C34         15.1470    29.5280    -0.0570 ca         1 YID      -0.067300
     27 C35         14.1510    29.7960     1.1040 c3         1 YID       0.001300
     28 C36         12.8010    30.2950     0.5220 c3         1 YID      -0.083767
     29 C37         14.6620    30.8660     2.1100 c3         1 YID      -0.083767
     30 C38         13.9200    28.4770     1.8880 c3         1 YID      -0.083767
     31 C39         16.4070    30.1710    -0.1500 ca         1 YID      -0.107000
     32 C40         17.2750    29.9020    -1.2220 ca         1 YID      -0.108000
     33 C41         16.9100    28.9820    -2.2140 ca         1 YID      -0.084000
     34 N08         18.2920    26.0880    -3.7380 nd         1 YID      -0.565100
     35 N17         25.0660    25.3840    -4.4150 nc         1 YID      -0.367300
     36 N22         17.8190    25.7080    -1.5590 na         1 YID      -0.164600
     37 N31         15.2600    27.4290    -3.1810 n          1 YID      -0.247400
     38 O01         13.7470    28.9560    -4.0270 o          1 YID      -0.543000
     39 O16         25.4860    25.8270    -3.1210 os         1 YID      -0.073700
     40 O29         15.6770    24.7590     3.6870 os         1 YID      -0.453000
     41 H1          25.5370    27.0230    -0.8410 hc         1 YID       0.063033
     42 H2          23.7880    27.1490    -0.6130 hc         1 YID       0.063033
     43 H3          24.6340    25.6340    -0.2140 hc         1 YID       0.063033
     44 H4          20.9430    26.1540    -4.5220 ha         1 YID       0.132000
     45 H5          16.9020    23.3750    -0.5450 hc         1 YID       0.059200
     46 H6          18.1920    23.8460     0.5460 hc         1 YID       0.059200
     47 H7          15.1270    25.6840     1.9200 h1         1 YID       0.030700
     48 H8          18.5300    26.8940     0.7180 hc         1 YID       0.059200
     49 H9          16.9010    27.4970     0.6400 hc         1 YID       0.059200
     50 H10         12.7510    27.1060    -5.4750 hc         1 YID       0.076200
     51 H11         14.3960    27.1270    -6.0880 hc         1 YID       0.076200
     52 H12         13.3420    25.0710    -4.0790 hc         1 YID       0.050200
     53 H13         13.8000    24.7760    -5.7600 hc         1 YID       0.050200
     54 H14         15.6890    24.1460    -4.2680 hc         1 YID       0.067700
     55 H15         16.1420    25.5190    -5.2710 hc         1 YID       0.067700
     56 H16         15.2430    25.5150    -2.3680 h1         1 YID       0.047700
     57 H17         19.9980    25.1970     0.2880 ha         1 YID       0.120000
     58 H18         22.3260    25.2090    -0.5050 ha         1 YID       0.114000
     59 H19         23.6210    24.1860    -6.1690 hc         1 YID       0.057367
     60 H20         22.1530    24.1460    -5.1920 hc         1 YID       0.057367
     61 H21         22.5740    25.6090    -6.1140 hc         1 YID       0.057367
     62 H22         16.0160    25.7240    -0.4780 h1         1 YID       0.062700
     63 H23         15.2410    23.5100     1.1170 hc         1 YID       0.055200
     64 H24         16.6260    23.0580     2.0960 hc         1 YID       0.055200
     65 H25         18.1130    25.5450     2.6260 hc         1 YID       0.055200
     66 H26         17.1060    26.9560     2.9170 hc         1 YID       0.055200
     67 H27         14.9000    25.3420     5.5370 h1         1 YID       0.029367
     68 H28         15.9790    26.5290     4.7850 h1         1 YID       0.029367
     69 H29         14.3290    26.2980     4.1530 h1         1 YID       0.029367
     70 H30         13.8420    28.0960    -1.0420 ha         1 YID       0.112000
     71 H31         12.0920    30.5350     1.3250 hc         1 YID       0.035478
     72 H32         12.9500    31.2010    -0.0780 hc         1 YID       0.035478
     73 H33         12.3290    29.5400    -0.1170 hc         1 YID       0.035478
     74 H34         13.9290    31.0320     2.9090 hc         1 YID       0.035478
     75 H35         15.5980    30.5480     2.5860 hc         1 YID       0.035478
     76 H36         14.8310    31.8280     1.6120 hc         1 YID       0.035478
     77 H37         13.2220    28.6310     2.7200 hc         1 YID       0.035478
     78 H38         13.5040    27.6910     1.2470 hc         1 YID       0.035478
     79 H39         14.8650    28.1090     2.3050 hc         1 YID       0.035478
     80 H40         16.7350    30.8910     0.5940 ha         1 YID       0.113000
     81 H41         18.2300    30.4180    -1.2880 ha         1 YID       0.116000
     82 H42         17.5770    28.8050    -3.0550 ha         1 YID       0.137000
     83 C30         15.2010    25.7840     4.5790 c3         1 YID       0.146900
@<TRIPOS>BOND
     1     1    15 ar  
     2     1    16 ar  
     3     1    36 1   
     4     2     5 ar  
     5     2    17 ar  
     6     2    18 1   
     7     3     4 1   
     8     3    18 2   
     9     3    39 1   
    10     4    41 1   
    11     4    42 1   
    12     4    43 1   
    13     5    15 ar  
    14     5    44 1   
    15     6    21 1   
    16     6    22 1   
    17     6    45 1   
    18     6    46 1   
    19     7    22 1   
    20     7    23 1   
    21     7    40 1   
    22     7    47 1   
    23     8    21 1   
    24     8    23 1   
    25     8    48 1   
    26     8    49 1   
    27     9    10 1   
    28     9    37 1   
    29     9    38 2   
    30    10    11 1   
    31    10    50 1   
    32    10    51 1   
    33    11    12 1   
    34    11    52 1   
    35    11    53 1   
    36    12    13 1   
    37    12    54 1   
    38    12    55 1   
    39    13    14 1   
    40    13    37 1   
    41    13    56 1   
    42    14    34 2   
    43    14    36 1   
    44    15    34 1   
    45    16    17 ar  
    46    16    57 1   
    47    17    58 1   
    48    18    19 1   
    49    19    20 1   
    50    19    35 2   
    51    20    59 1   
    52    20    60 1   
    53    20    61 1   
    54    21    36 1   
    55    21    62 1   
    56    22    63 1   
    57    22    64 1   
    58    23    65 1   
    59    23    66 1   
    60    24    25 ar  
    61    24    33 ar  
    62    24    37 1   
    63    25    26 ar  
    64    25    70 1   
    65    26    27 1   
    66    26    31 ar  
    67    27    28 1   
    68    27    29 1   
    69    27    30 1   
    70    28    71 1   
    71    28    72 1   
    72    28    73 1   
    73    29    74 1   
    74    29    75 1   
    75    29    76 1   
    76    30    77 1   
    77    30    78 1   
    78    30    79 1   
    79    31    32 ar  
    80    31    80 1   
    81    32    33 ar  
    82    32    81 1   
    83    33    82 1   
    84    35    39 1   
    85    40    83 1   
    86    67    83 1   
    87    68    83 1   
    88    69    83 1   
@<TRIPOS>SUBSTRUCTURE
     1 YID         1 TEMP              0 ****  ****    0 ROOT
