@<TRIPOS>MOLECULE
YIE
   19    20     1     0     0
SMALL
No Charge or Current Charge


@<TRIPOS>ATOM
      1 Cl1         -4.2060     0.0040     0.6620 cl         1 YIE      -0.250000
      2 C2          -2.5580     0.0040     0.0480 ca         1 YIE       0.105000
      3 C5          -1.8980     1.2200    -0.1900 ca         1 YIE      -0.114500
      4 C6          -0.5800     1.2200    -0.6810 ca         1 YIE      -0.091500
      5 C7           0.0820     0.0020    -0.9360 ca         1 YIE      -0.036300
      6 C4          -0.5860    -1.2140    -0.6920 ca         1 YIE      -0.091500
      7 C3          -1.9040    -1.2130    -0.2010 ca         1 YIE      -0.114500
      8 C8           1.5110     0.0020    -1.4660 c3         1 YIE      -0.028400
      9 C9           2.5470    -0.0160    -0.3670 cc         1 YIE       0.401300
     10 N10          3.0060     1.1200     0.1280 n1         1 YIE      -0.495500
     11 N11          3.8770     0.6620     1.0320 nd         1 YIE      -0.172000
     12 N12          3.9060    -0.7090     1.0330 nd         1 YIE      -0.172000
     13 N13          3.0740    -1.1470     0.1550 nc         1 YIE      -0.495500
     14 H4          -0.0830    -2.1600    -0.8810 ha         1 YIE       0.123500
     15 H3          -2.4160    -2.1540    -0.0150 ha         1 YIE       0.113000
     16 H6          -0.0730     2.1650    -0.8610 ha         1 YIE       0.123500
     17 H5          -2.4060     2.1610     0.0060 ha         1 YIE       0.113000
     18 H81C         1.6630    -0.8650    -2.1200 hc         1 YIE       0.041200
     19 H82C         1.6710     0.8770    -2.1070 hc         1 YIE       0.041200
@<TRIPOS>BOND
     1     1     2 1   
     2     2     3 ar  
     3     2     7 ar  
     4     3     4 ar  
     5     3    17 1   
     6     4     5 ar  
     7     4    16 1   
     8     5     6 ar  
     9     5     8 1   
    10     6     7 ar  
    11     6    14 1   
    12     7    15 1   
    13     8     9 1   
    14     8    18 1   
    15     8    19 1   
    16     9    10 2   
    17     9    13 1   
    18    10    11 2   
    19    11    12 1   
    20    12    13 2   
@<TRIPOS>SUBSTRUCTURE
     1 YIE         1 TEMP              0 ****  ****    0 ROOT
