@<TRIPOS>MOLECULE
YIE
   19    20     1     0     0
SMALL
abcg2


@<TRIPOS>ATOM
      1 CL1         -4.0990     0.0040     0.7220 cl         1 YIE      -0.250000
      2 C2          -2.4890     0.0040     0.0720 ca         1 YIE       0.105000
      3 C5          -1.8590     1.2100    -0.1900 ca         1 YIE      -0.114500
      4 C6          -0.5740     1.2000    -0.7140 ca         1 YIE      -0.091500
      5 C7           0.0870     0.0050    -0.9820 ca         1 YIE      -0.036300
      6 C4          -0.5700    -1.1900    -0.7050 ca         1 YIE      -0.091500
      7 C3          -1.8550    -1.2020    -0.1810 ca         1 YIE      -0.114500
      8 C8           1.4970     0.0050    -1.5160 c3         1 YIE      -0.028400
      9 C9           2.5010    -0.0100    -0.4110 cc         1 YIE       0.401300
     10 N10          2.9590     1.0750     0.2000 n1         1 YIE      -0.495500
     11 N11          3.7780     0.6140     1.1310 nd         1 YIE      -0.172000
     12 N12          3.8110    -0.6810     1.0830 nd         1 YIE      -0.172000
     13 N13          3.0140    -1.1130     0.1190 nc         1 YIE      -0.495500
     14 H4          -0.0770    -2.1340    -0.9030 ha         1 YIE       0.123500
     15 H3          -2.3520    -2.1400     0.0250 ha         1 YIE       0.113000
     16 H6          -0.0840     2.1430    -0.9190 ha         1 YIE       0.123500
     17 H5          -2.3600     2.1480     0.0090 ha         1 YIE       0.113000
     18 H81C         1.6470    -0.8670    -2.1550 hc         1 YIE       0.041200
     19 H82C         1.6510     0.8880    -2.1380 hc         1 YIE       0.041200
@<TRIPOS>BOND
     1     1     2 1   
     2     2     3 ar  
     3     2     7 ar  
     4     3     4 ar  
     5     3    17 1   
     6     4     5 ar  
     7     4    16 1   
     8     5     6 ar  
     9     5     8 1   
    10     6     7 ar  
    11     6    14 1   
    12     7    15 1   
    13     8     9 1   
    14     8    18 1   
    15     8    19 1   
    16     9    10 2   
    17     9    13 1   
    18    10    11 2   
    19    11    12 1   
    20    12    13 2   
@<TRIPOS>SUBSTRUCTURE
     1 YIE         1 TEMP              0 ****  ****    0 ROOT
