@<TRIPOS>MOLECULE
YIF
   42    43     1     0     0
SMALL
No Charge or Current Charge


@<TRIPOS>ATOM
      1 C17         -8.7970    -1.9470   -23.1420 ca         1 YIF      -0.060000
      2 C16         -8.5330    -2.2380   -21.7920 ca         1 YIF      -0.177500
      3 C15         -7.3400    -1.8060   -21.1980 ca         1 YIF       0.142100
      4 C14         -6.4050    -1.0800   -21.9520 ca         1 YIF      -0.177500
      5 C1         -10.2760     0.5370   -24.9760 c3         1 YIF      -0.122100
      6 N1          -8.8950     0.8460   -27.0310 n7         1 YIF      -0.872400
      7 C6          -8.7310     4.9110   -29.3220 ca         1 YIF      -0.068500
      8 C5          -9.6360     3.8320   -29.3290 ca         1 YIF      -0.117300
      9 C12         -7.8620    -1.2180   -23.9110 ca         1 YIF      -0.165300
     10 C3          -9.3560     2.2010   -27.3990 c3         1 YIF       0.163800
     11 C8         -10.4900     6.4080   -30.0890 ca         1 YIF       0.136100
     12 C9         -11.3990     5.3370   -30.0970 ca         1 YIF      -0.174500
     13 C11         -8.1200    -0.8770   -25.3820 c3         1 YIF       0.230600
     14 C2          -8.8490     0.5010   -25.5830 c3         1 YIF       0.187500
     15 C4          -9.1760     2.4400   -28.9120 c3         1 YIF      -0.029100
     16 C7          -9.1590     6.1950   -29.7030 ca         1 YIF      -0.174500
     17 O1         -10.8950     7.6560   -30.4560 oh         1 YIF      -0.535100
     18 C10        -10.9730     4.0520   -29.7170 ca         1 YIF      -0.068500
     19 O2          -8.8300    -1.9490   -26.0320 oh         1 YIF      -0.659000
     20 C13         -6.6650    -0.7860   -23.3020 ca         1 YIF      -0.060000
     21 O3          -7.0940    -2.0940   -19.8890 oh         1 YIF      -0.533100
     22 H1          -9.7330    -2.2840   -23.5840 ha         1 YIF       0.119000
     23 H2          -9.2580    -2.7980   -21.2070 ha         1 YIF       0.121500
     24 H3          -5.4770    -0.7390   -21.5000 ha         1 YIF       0.121500
     25 H4         -10.2500     0.2840   -23.9100 hc         1 YIF       0.041367
     26 H5         -10.7170     1.5380   -25.0520 hc         1 YIF       0.041367
     27 H6         -10.9410    -0.1730   -25.4810 hc         1 YIF       0.041367
     28 H7          -9.4850     0.1450   -27.4960 hn         1 YIF       0.420000
     29 H10         -8.7810     2.9610   -26.8510 h1         1 YIF       0.030700
     30 H11        -10.4160     2.3360   -27.1480 h1         1 YIF       0.030700
     31 H12        -12.4330     5.4920   -30.3940 ha         1 YIF       0.120000
     32 H13         -7.1350    -0.7770   -25.8610 h1         1 YIF       0.048700
     33 H14         -8.2480     1.2550   -25.0540 h1         1 YIF       0.055700
     34 H15         -9.7360     1.6770   -29.4660 hc         1 YIF       0.052200
     35 H16         -8.1210     2.2990   -29.1740 hc         1 YIF       0.052200
     36 H17         -8.4570     7.0250   -29.6960 ha         1 YIF       0.120000
     37 H18        -11.8470     7.6160   -30.6920 ho         1 YIF       0.463000
     38 H19        -11.6830     3.2270   -29.7220 ha         1 YIF       0.112500
     39 H20         -8.3000    -2.7600   -25.8760 ho         1 YIF       0.446000
     40 H21         -5.9340    -0.2200   -23.8760 ha         1 YIF       0.119000
     41 H22         -6.2210    -1.7170   -19.6480 ho         1 YIF       0.465000
     42 H9          -7.6970     4.7560   -29.0210 ha         1 YIF       0.112500
@<TRIPOS>BOND
     1     1     2 ar  
     2     1     9 ar  
     3     1    22 1   
     4     2     3 ar  
     5     2    23 1   
     6     3     4 ar  
     7     3    21 1   
     8     4    20 ar  
     9     4    24 1   
    10     5    14 1   
    11     5    25 1   
    12     5    26 1   
    13     5    27 1   
    14     6    10 1   
    15     6    14 1   
    16     6    28 1   
    17     7     8 ar  
    18     7    16 ar  
    19     7    42 1   
    20     8    15 1   
    21     8    18 ar  
    22     9    13 1   
    23     9    20 ar  
    24    10    15 1   
    25    10    29 1   
    26    10    30 1   
    27    11    12 ar  
    28    11    16 ar  
    29    11    17 1   
    30    12    18 ar  
    31    12    31 1   
    32    13    14 1   
    33    13    19 1   
    34    13    32 1   
    35    14    33 1   
    36    15    34 1   
    37    15    35 1   
    38    16    36 1   
    39    17    37 1   
    40    18    38 1   
    41    19    39 1   
    42    20    40 1   
    43    21    41 1   
@<TRIPOS>SUBSTRUCTURE
     1 YIF         1 TEMP              0 ****  ****    0 ROOT
