@<TRIPOS>MOLECULE
YIF
   42    43     1     0     0
SMALL
abcg2


@<TRIPOS>ATOM
      1 C17         -8.6140    -2.0400   -23.2620 ca         1 YIF      -0.060000
      2 C16         -8.3990    -2.2060   -21.9030 ca         1 YIF      -0.177500
      3 C15         -7.4090    -1.4710   -21.2570 ca         1 YIF       0.142100
      4 C14         -6.6330    -0.5800   -21.9960 ca         1 YIF      -0.177500
      5 C1         -10.3500     0.2550   -25.1070 c3         1 YIF      -0.122100
      6 N1          -8.9480     0.6720   -27.1390 n7         1 YIF      -0.872400
      7 C6          -8.6560     4.6720   -29.4580 ca         1 YIF      -0.068500
      8 C5          -9.6480     3.7090   -29.2850 ca         1 YIF      -0.117300
      9 C12         -7.8560    -1.1450   -24.0120 ca         1 YIF      -0.165300
     10 C3          -9.3580     2.0270   -27.4520 c3         1 YIF       0.163800
     11 C8         -10.2960     6.3980   -29.7980 ca         1 YIF       0.136100
     12 C9         -11.3020     5.4500   -29.6280 ca         1 YIF      -0.174500
     13 C11         -8.1070    -0.9040   -25.4840 c3         1 YIF       0.230600
     14 C2          -8.9520     0.3560   -25.7170 c3         1 YIF       0.187500
     15 C4          -9.2980     2.2850   -28.9550 c3         1 YIF      -0.029100
     16 C7          -8.9650     5.9990   -29.7140 ca         1 YIF      -0.174500
     17 O1         -10.5510     7.7010   -30.0460 oh         1 YIF      -0.535100
     18 C10        -10.9730     4.1260   -29.3750 ca         1 YIF      -0.068500
     19 O2          -8.7580    -1.9810   -26.1140 oh         1 YIF      -0.659000
     20 C13         -6.8610    -0.4300   -23.3550 ca         1 YIF      -0.060000
     21 O3          -7.2420    -1.6610   -19.9310 oh         1 YIF      -0.533100
     22 H1          -9.3930    -2.6230   -23.7380 ha         1 YIF       0.119000
     23 H2          -9.0010    -2.9060   -21.3370 ha         1 YIF       0.121500
     24 H3          -5.8490    -0.0070   -21.5130 ha         1 YIF       0.121500
     25 H4         -10.3110     0.0790   -24.0320 hc         1 YIF       0.041367
     26 H5         -10.9040     1.1810   -25.2620 hc         1 YIF       0.041367
     27 H6         -10.9250    -0.5540   -25.5600 hc         1 YIF       0.041367
     28 H7          -9.5520     0.0200   -27.6270 hn         1 YIF       0.420000
     29 H10         -8.6760     2.7170   -26.9450 h1         1 YIF       0.030700
     30 H11        -10.3690     2.2770   -27.0950 h1         1 YIF       0.030700
     31 H12        -12.3450     5.7430   -29.6950 ha         1 YIF       0.120000
     32 H13         -7.1360    -0.7090   -25.9630 h1         1 YIF       0.048700
     33 H14         -8.4170     1.1700   -25.2150 h1         1 YIF       0.055700
     34 H15         -9.9850     1.6020   -29.4650 hc         1 YIF       0.052200
     35 H16         -8.2940     2.0530   -29.3170 hc         1 YIF       0.052200
     36 H17         -8.1750     6.7280   -29.8500 ha         1 YIF       0.120000
     37 H18        -11.5010     7.8560   -30.0810 ho         1 YIF       0.463000
     38 H19        -11.7710     3.4040   -29.2490 ha         1 YIF       0.112500
     39 H20         -8.1800    -2.7490   -26.0850 ho         1 YIF       0.446000
     40 H21         -6.2410     0.2640   -23.9130 ha         1 YIF       0.119000
     41 H22         -6.5390    -1.0940   -19.5960 ho         1 YIF       0.465000
     42 H9          -7.6140     4.3790   -29.3950 ha         1 YIF       0.112500
@<TRIPOS>BOND
     1     1     2 ar  
     2     1     9 ar  
     3     1    22 1   
     4     2     3 ar  
     5     2    23 1   
     6     3     4 ar  
     7     3    21 1   
     8     4    20 ar  
     9     4    24 1   
    10     5    14 1   
    11     5    25 1   
    12     5    26 1   
    13     5    27 1   
    14     6    10 1   
    15     6    14 1   
    16     6    28 1   
    17     7     8 ar  
    18     7    16 ar  
    19     7    42 1   
    20     8    15 1   
    21     8    18 ar  
    22     9    13 1   
    23     9    20 ar  
    24    10    15 1   
    25    10    29 1   
    26    10    30 1   
    27    11    12 ar  
    28    11    16 ar  
    29    11    17 1   
    30    12    18 ar  
    31    12    31 1   
    32    13    14 1   
    33    13    19 1   
    34    13    32 1   
    35    14    33 1   
    36    15    34 1   
    37    15    35 1   
    38    16    36 1   
    39    17    37 1   
    40    18    38 1   
    41    19    39 1   
    42    20    40 1   
    43    21    41 1   
@<TRIPOS>SUBSTRUCTURE
     1 YIF         1 TEMP              0 ****  ****    0 ROOT
