@<TRIPOS>MOLECULE
YIH
   20    21     1     0     0
SMALL
No Charge or Current Charge


@<TRIPOS>ATOM
      1 C6          -0.7040    -1.8610     0.0220 ca         1 YIH      -0.151000
      2 C5          -2.1090    -1.9120     0.0180 ca         1 YIH      -0.066000
      3 C15         -0.7840     0.5710     0.0060 ca         1 YIH      -0.206000
      4 C7          -0.0360    -0.6250     0.0160 ca         1 YIH       0.192100
      5 C3          -2.8550    -0.7220     0.0080 ca         1 YIH       0.054000
      6 C2          -2.1880     0.5220     0.0020 ca         1 YIH       0.163000
      7 C10          3.6050     0.2270     0.0220 cc         1 YIH       0.382300
      8 C9           2.1260     0.5740     0.0150 c3         1 YIH       0.165300
      9 N12          5.5440    -0.2170    -0.6820 n1         1 YIH      -0.167500
     10 N11          4.2960     0.0640    -1.1410 nc         1 YIH      -0.472000
     11 N14          4.3170     0.0780     1.1130 nd         1 YIH      -0.472000
     12 N13          5.5630    -0.2080     0.6510 nd         1 YIH      -0.167500
     13 O8           1.3430    -0.6400     0.0200 os         1 YIH      -0.314100
     14 Cl4         -4.6170    -0.8150     0.0030 cl         1 YIH      -0.206000
     15 Cl1         -3.0910     2.0370    -0.0100 cl         1 YIH      -0.200000
     16 H6          -0.1280    -2.7830     0.0290 ha         1 YIH       0.137000
     17 H5          -2.6190    -2.8730     0.0220 ha         1 YIH       0.119000
     18 H15         -0.2990     1.5420     0.0020 ha         1 YIH       0.139000
     19 H91C         1.8970     1.1820     0.8990 h1         1 YIH       0.034700
     20 H92C         1.9020     1.1720    -0.8780 h1         1 YIH       0.034700
@<TRIPOS>BOND
     1     1     2 ar  
     2     1     4 ar  
     3     1    16 1   
     4     2     5 ar  
     5     2    17 1   
     6     3     4 ar  
     7     3     6 ar  
     8     3    18 1   
     9     4    13 1   
    10     5     6 ar  
    11     5    14 1   
    12     6    15 1   
    13     7     8 1   
    14     7    10 1   
    15     7    11 2   
    16     8    13 1   
    17     8    19 1   
    18     8    20 1   
    19     9    10 2   
    20     9    12 2   
    21    11    12 1   
@<TRIPOS>SUBSTRUCTURE
     1 YIH         1 TEMP              0 ****  ****    0 ROOT
