@<TRIPOS>MOLECULE
YIH
   20    21     1     0     0
SMALL
abcg2


@<TRIPOS>ATOM
      1 C6          -0.6700    -1.8410     0.0130 ca         1 YIH      -0.151000
      2 C5          -2.0480    -1.8770     0.0140 ca         1 YIH      -0.066000
      3 C15         -0.7350     0.5630     0.0090 ca         1 YIH      -0.206000
      4 C7           0.0020    -0.6170     0.0110 ca         1 YIH       0.192100
      5 C3          -2.7920    -0.7020     0.0130 ca         1 YIH       0.054000
      6 C2          -2.1240     0.5130     0.0110 ca         1 YIH       0.163000
      7 C10          3.5170     0.2360    -0.0000 cc         1 YIH       0.382300
      8 C9           2.0710     0.5560    -0.0010 c3         1 YIH       0.165300
      9 N12          5.4510    -0.2310    -0.6480 n1         1 YIH      -0.167500
     10 N11          4.2410     0.0410    -1.0950 nc         1 YIH      -0.472000
     11 N14          4.2500     0.0950     1.0970 nd         1 YIH      -0.472000
     12 N13          5.4570    -0.1990     0.6520 nd         1 YIH      -0.167500
     13 O8           1.3420    -0.6680     0.0130 os         1 YIH      -0.314100
     14 CL4         -4.5110    -0.7770     0.0170 cl         1 YIH      -0.206000
     15 CL1         -3.0010     1.9920     0.0090 cl         1 YIH      -0.200000
     16 H6          -0.1040    -2.7630     0.0120 ha         1 YIH       0.137000
     17 H5          -2.5580    -2.8300     0.0160 ha         1 YIH       0.119000
     18 H15         -0.2570     1.5320     0.0070 ha         1 YIH       0.139000
     19 H91C         1.8190     1.1550     0.8800 h1         1 YIH       0.034700
     20 H92C         1.8140     1.1360    -0.8930 h1         1 YIH       0.034700
@<TRIPOS>BOND
     1     1     2 ar  
     2     1     4 ar  
     3     1    16 1   
     4     2     5 ar  
     5     2    17 1   
     6     3     4 ar  
     7     3     6 ar  
     8     3    18 1   
     9     4    13 1   
    10     5     6 ar  
    11     5    14 1   
    12     6    15 1   
    13     7     8 1   
    14     7    10 1   
    15     7    11 2   
    16     8    13 1   
    17     8    19 1   
    18     8    20 1   
    19     9    10 2   
    20     9    12 2   
    21    11    12 1   
@<TRIPOS>SUBSTRUCTURE
     1 YIH         1 TEMP              0 ****  ****    0 ROOT
