@<TRIPOS>MOLECULE
YII
   44    47     1     0     0
SMALL
No Charge or Current Charge


@<TRIPOS>ATOM
      1 C2           0.1130     0.0790   -11.1910 cc         1 YII      -0.197800
      2 O1           0.9780    -5.8170   -14.0100 o          1 YII      -0.516000
      3 C4           0.0540    -2.3580   -10.3610 ca         1 YII      -0.064000
      4 C7          -1.6480    -5.8040   -13.2570 c3         1 YII      -0.060800
      5 C6           0.1350    -3.9830   -12.1930 ca         1 YII      -0.049500
      6 S            0.1340    -5.7290   -12.7500 sx         1 YII       0.238200
      7 C5           0.0660    -3.6950   -10.8090 ca         1 YII      -0.086000
      8 C8           0.1960    -2.9380   -13.1420 ca         1 YII      -0.047000
      9 C9           0.1870    -1.6130   -12.6720 ca         1 YII      -0.049200
     10 N            0.2360    -0.4270   -13.4020 na         1 YII      -0.041700
     11 C10          0.3240    -0.3600   -14.8700 c3         1 YII       0.050900
     12 C1           0.1810     0.6260   -12.4550 cd         1 YII      -0.096300
     13 C3           0.1160    -1.3460   -11.3280 ca         1 YII      -0.059800
     14 C11          0.0480     0.9240   -10.0360 cc         1 YII       0.416500
     15 N1           0.0500     2.2610   -10.0780 nd         1 YII      -0.447300
     16 N2           0.1190     2.7980   -11.3880 n          1 YII      -0.133800
     17 C            0.1830     2.0970   -12.6340 c          1 YII       0.564200
     18 O            0.2280     2.6540   -13.7260 o          1 YII      -0.550000
     19 C12          0.1370     4.2780   -11.4210 c3         1 YII       0.158300
     20 C13          1.5410     4.8670   -11.5310 ca         1 YII      -0.065300
     21 C18          2.3870     4.8970   -10.4060 ca         1 YII      -0.140000
     22 C17          3.6800     5.4370   -10.5040 ca         1 YII      -0.074000
     23 C16          4.1340     5.9500   -11.7310 ca         1 YII      -0.172000
     24 C15          3.2990     5.9230   -12.8570 ca         1 YII       0.289000
     25 N3           3.7460     6.4220   -14.0510 nv         1 YII      -1.075000
     26 C14          2.0070     5.3840   -12.7570 ca         1 YII      -0.154000
     27 H           -0.0020    -2.1220    -9.3010 ha         1 YII       0.120000
     28 H3          -1.8380    -5.0150   -13.9930 h1         1 YII       0.079033
     29 H4          -1.8430    -6.7900   -13.6950 h1         1 YII       0.079033
     30 H2          -2.2700    -5.6530   -12.3660 h1         1 YII       0.079033
     31 H1           0.0170    -4.5060   -10.0860 ha         1 YII       0.114000
     32 H5           0.2460    -3.1580   -14.2050 ha         1 YII       0.150000
     33 H6           0.7310     0.6090   -15.1800 h1         1 YII       0.066700
     34 H8           0.9870    -1.1510   -15.2400 h1         1 YII       0.066700
     35 H7          -0.6750    -0.4890   -15.3030 h1         1 YII       0.066700
     36 H9          -0.0070     0.5160    -9.0360 h4         1 YII       0.046800
     37 H11         -0.3370     4.6630   -10.5080 h1         1 YII       0.074200
     38 H10         -0.4790     4.6280   -12.2600 h1         1 YII       0.074200
     39 H17          2.0410     4.5000    -9.4540 ha         1 YII       0.119000
     40 H16          4.3290     5.4570    -9.6310 ha         1 YII       0.109000
     41 H15          5.1350     6.3660   -11.8020 ha         1 YII       0.111000
     42 H14          4.7260     6.6790   -14.1570 hn         1 YII       0.447500
     43 H13          3.2030     6.2730   -14.9000 hn         1 YII       0.447500
     44 H12          1.3630     5.3630   -13.6330 ha         1 YII       0.113000
@<TRIPOS>BOND
     1     1    12 2   
     2     1    13 1   
     3     1    14 1   
     4     2     6 2   
     5     3     7 ar  
     6     3    13 ar  
     7     3    27 1   
     8     4     6 1   
     9     4    28 1   
    10     4    29 1   
    11     4    30 1   
    12     5     6 1   
    13     5     7 ar  
    14     5     8 ar  
    15     7    31 1   
    16     8     9 ar  
    17     8    32 1   
    18     9    10 1   
    19     9    13 ar  
    20    10    11 1   
    21    10    12 1   
    22    11    33 1   
    23    11    34 1   
    24    11    35 1   
    25    12    17 1   
    26    14    15 2   
    27    14    36 1   
    28    15    16 1   
    29    16    17 1   
    30    16    19 1   
    31    17    18 2   
    32    19    20 1   
    33    19    37 1   
    34    19    38 1   
    35    20    21 ar  
    36    20    26 ar  
    37    21    22 ar  
    38    21    39 1   
    39    22    23 ar  
    40    22    40 1   
    41    23    24 ar  
    42    23    41 1   
    43    24    25 1   
    44    24    26 ar  
    45    25    42 1   
    46    25    43 1   
    47    26    44 1   
@<TRIPOS>SUBSTRUCTURE
     1 YII         1 TEMP              0 ****  ****    0 ROOT
