@<TRIPOS>MOLECULE
YII
   44    47     1     0     0
SMALL
abcg2


@<TRIPOS>ATOM
      1 C2          -0.0260     0.1130   -11.1660 cc         1 YII      -0.197800
      2 O1           0.7360    -5.5800   -14.1630 o          1 YII      -0.516000
      3 C4          -0.2560    -2.3570   -10.3830 ca         1 YII      -0.064000
      4 C7          -1.5950    -5.8930   -12.9270 c3         1 YII      -0.060800
      5 C6           0.0680    -3.8930   -12.2110 ca         1 YII      -0.049500
      6 S            0.1810    -5.5960   -12.7630 sx         1 YII       0.238200
      7 C5          -0.1920    -3.6500   -10.8540 ca         1 YII      -0.086000
      8 C8           0.2970    -2.8870   -13.1230 ca         1 YII      -0.047000
      9 C9           0.2290    -1.5840   -12.6350 ca         1 YII      -0.049200
     10 N            0.4040    -0.4060   -13.3130 na         1 YII      -0.041700
     11 C10          0.6770    -0.3380   -14.7340 c3         1 YII       0.050900
     12 C1           0.2460     0.6160   -12.4260 cd         1 YII      -0.096300
     13 C3          -0.0440    -1.3080   -11.2800 ca         1 YII      -0.059800
     14 C11         -0.2210     1.0200   -10.1000 cc         1 YII       0.416500
     15 N1          -0.1580     2.2970   -10.2750 nd         1 YII      -0.447300
     16 N2           0.1000     2.7680   -11.5050 n          1 YII      -0.133800
     17 C            0.3300     2.0390   -12.6530 c          1 YII       0.564200
     18 O            0.5670     2.5930   -13.7200 o          1 YII      -0.550000
     19 C12          0.1760     4.2200   -11.6000 c3         1 YII       0.158300
     20 C13          1.5920     4.7280   -11.7020 ca         1 YII      -0.065300
     21 C18          2.5680     4.2850   -10.8110 ca         1 YII      -0.140000
     22 C17          3.8530     4.7990   -10.9080 ca         1 YII      -0.074000
     23 C16          4.1770     5.7470   -11.8650 ca         1 YII      -0.172000
     24 C15          3.2040     6.2050   -12.7600 ca         1 YII       0.289000
     25 N3           3.4940     7.1880   -13.6830 nv         1 YII      -1.075000
     26 C14          1.9130     5.6730   -12.6650 ca         1 YII      -0.154000
     27 H           -0.4580    -2.1630    -9.3380 ha         1 YII       0.120000
     28 H3          -2.0130    -5.1860   -13.6430 h1         1 YII       0.079033
     29 H4          -1.7240    -6.9130   -13.2840 h1         1 YII       0.079033
     30 H2          -2.0770    -5.7840   -11.9570 h1         1 YII       0.079033
     31 H1          -0.3420    -4.4800   -10.1740 ha         1 YII       0.114000
     32 H5           0.5160    -3.1080   -14.1600 ha         1 YII       0.150000
     33 H6           0.8320     0.6920   -15.0270 h1         1 YII       0.066700
     34 H8           1.5720    -0.9110   -14.9700 h1         1 YII       0.066700
     35 H7          -0.1620    -0.7450   -15.3000 h1         1 YII       0.066700
     36 H9          -0.4340     0.6860    -9.0930 h4         1 YII       0.046800
     37 H11         -0.3000     4.6040   -10.6990 h1         1 YII       0.074200
     38 H10         -0.4140     4.5580   -12.4510 h1         1 YII       0.074200
     39 H17          2.3320     3.5520   -10.0510 ha         1 YII       0.119000
     40 H16          4.6200     4.4570   -10.2240 ha         1 YII       0.109000
     41 H15          5.1870     6.1370   -11.9230 ha         1 YII       0.111000
     42 H14          4.4650     7.2730   -13.9410 hn         1 YII       0.447500
     43 H13          2.8900     7.2240   -14.4890 hn         1 YII       0.447500
     44 H12          1.1500     6.0060   -13.3610 ha         1 YII       0.113000
@<TRIPOS>BOND
     1     1    12 2   
     2     1    13 1   
     3     1    14 1   
     4     2     6 2   
     5     3     7 ar  
     6     3    13 ar  
     7     3    27 1   
     8     4     6 1   
     9     4    28 1   
    10     4    29 1   
    11     4    30 1   
    12     5     6 1   
    13     5     7 ar  
    14     5     8 ar  
    15     7    31 1   
    16     8     9 ar  
    17     8    32 1   
    18     9    10 1   
    19     9    13 ar  
    20    10    11 1   
    21    10    12 1   
    22    11    33 1   
    23    11    34 1   
    24    11    35 1   
    25    12    17 1   
    26    14    15 2   
    27    14    36 1   
    28    15    16 1   
    29    16    17 1   
    30    16    19 1   
    31    17    18 2   
    32    19    20 1   
    33    19    37 1   
    34    19    38 1   
    35    20    21 ar  
    36    20    26 ar  
    37    21    22 ar  
    38    21    39 1   
    39    22    23 ar  
    40    22    40 1   
    41    23    24 ar  
    42    23    41 1   
    43    24    25 1   
    44    24    26 ar  
    45    25    42 1   
    46    25    43 1   
    47    26    44 1   
@<TRIPOS>SUBSTRUCTURE
     1 YII         1 TEMP              0 ****  ****    0 ROOT
