@<TRIPOS>MOLECULE
YIL
   84    86     1     0     0
SMALL
No Charge or Current Charge


@<TRIPOS>ATOM
      1 C30        -61.0300     8.8890    -6.3550 ca         1 YIL      -0.085300
      2 C10        -57.7070     8.4470     1.4220 cc         1 YIL       0.288200
      3 C33        -64.4740     9.7500    -7.8170 c3         1 YIL       0.136300
      4 C16        -61.7010     6.1340     1.3180 ca         1 YIL      -0.111000
      5 C17        -61.0280     7.2580     1.8410 ca         1 YIL      -0.056000
      6 C21        -53.5270    12.8640    -0.9160 c3         1 YIL       0.241800
      7 C23        -52.0840    14.1520    -2.3520 c2         1 YIL       0.827100
      8 C28        -59.5280    10.3010    -4.9460 c          1 YIL       0.598100
      9 C29        -59.6410     9.5100    -6.2520 c3         1 YIL      -0.104100
     10 C31        -62.0670     9.5690    -7.0230 ca         1 YIL      -0.068000
     11 C01        -62.4710     8.6920    -1.3680 c3         1 YIL      -0.091600
     12 C03        -60.0290     9.3670    -1.6620 c3         1 YIL      -0.088400
     13 C04        -58.9120    10.0660    -2.4930 c3         1 YIL       0.041700
     14 C05        -57.5180     9.7610    -1.8740 c          1 YIL       0.590100
     15 C07        -56.1290    10.0810     0.2180 c3         1 YIL       0.127700
     16 C08        -56.6480     9.5450     1.6060 c3         1 YIL       0.382700
     17 C12        -59.6780     7.4640     1.5170 ca         1 YIL       0.088400
     18 C13        -59.0200     6.5670     0.7000 ca         1 YIL      -0.194000
     19 C14        -59.6640     5.4400     0.1660 ca         1 YIL      -0.070000
     20 C15        -61.0190     5.2270     0.4800 ca         1 YIL      -0.096000
     21 C19        -55.1490    11.2860     0.3100 c3         1 YIL      -0.076400
     22 C32        -63.3590     9.0120    -7.0940 ca         1 YIL      -0.108300
     23 C35        -65.4810     9.8150   -10.1110 c          1 YIL       0.600100
     24 C36        -65.3760     9.2310   -11.5150 c3         1 YIL      -0.180100
     25 C44        -63.6110     7.7640    -6.4910 ca         1 YIL      -0.085000
     26 C45        -62.5810     7.0840    -5.8210 ca         1 YIL      -0.120000
     27 C46        -61.2950     7.6440    -5.7520 ca         1 YIL      -0.101000
     28 C48        -61.9100    11.1130    -1.9020 c3         1 YIL      -0.091600
     29 N06        -57.2590    10.3980    -0.6780 ns         1 YIL      -0.499900
     30 N11        -58.9390     8.5530     1.9590 nd         1 YIL      -0.554100
     31 N22        -52.9790    13.2160    -2.2290 nu         1 YIL      -0.934400
     32 N24        -52.3490    14.9810    -3.2260 n2         1 YIL      -0.937100
     33 N25        -51.0110    13.4440    -2.4160 nv         1 YIL      -1.071200
     34 N27        -58.9570     9.6100    -3.9000 ns         1 YIL      -0.492900
     35 N34        -64.5580     9.3350    -9.2150 ns         1 YIL      -0.501900
     36 O43        -66.3220    10.6470    -9.8030 o          1 YIL      -0.618100
     37 O47        -59.9470    11.4430    -4.8300 o          1 YIL      -0.597100
     38 S18        -57.3450     7.0150     0.4260 ss         1 YIL       0.119800
     39 H1         -64.2940    10.8340    -7.7740 h1         1 YIL       0.076700
     40 H2         -65.4350     9.5500    -7.3230 h1         1 YIL       0.076700
     41 H3         -62.7480     5.9690     1.5600 ha         1 YIL       0.121000
     42 H4         -61.5510     7.9640     2.4810 ha         1 YIL       0.132000
     43 H5         -52.7160    12.5580    -0.2400 h1         1 YIL       0.032700
     44 H6         -54.0250    13.7370    -0.4730 h1         1 YIL       0.032700
     45 H7         -55.3410    12.0190    -1.7320 hc         1 YIL       0.063700
     46 H8         -54.0410    10.8470    -1.5070 hc         1 YIL       0.063700
     47 H9         -58.8940     8.7070    -6.2650 hc         1 YIL       0.064200
     48 H10        -59.4690    10.1870    -7.0970 hc         1 YIL       0.064200
     49 H11        -61.8710    10.5350    -7.4840 ha         1 YIL       0.123000
     50 H12        -62.2070     7.6430    -1.5460 hc         1 YIL       0.035533
     51 H13        -62.4490     8.8720    -0.2860 hc         1 YIL       0.035533
     52 H14        -63.4990     8.8450    -1.7200 hc         1 YIL       0.035533
     53 H15        -61.5830     9.4080    -3.1730 hc         1 YIL       0.043700
     54 H16        -59.8460     8.2850    -1.6940 hc         1 YIL       0.058200
     55 H17        -59.9310     9.6580    -0.6100 hc         1 YIL       0.058200
     56 H18        -59.0460    11.1540    -2.4540 h1         1 YIL       0.076700
     57 H19        -55.5570     9.2560    -0.2290 h1         1 YIL       0.095700
     58 H21        -59.1300     4.7450    -0.4800 ha         1 YIL       0.129000
     59 H22        -61.5410     4.3620     0.0770 ha         1 YIL       0.119000
     60 H23        -54.3320    11.0300     0.9940 hc         1 YIL       0.059700
     61 H24        -55.6690    12.1460     0.7500 hc         1 YIL       0.059700
     62 H25        -65.4350     8.1390   -11.4520 hc         1 YIL       0.057367
     63 H26        -66.1280     9.6390   -12.2000 hc         1 YIL       0.057367
     64 H27        -64.3580     9.3870   -11.8910 hc         1 YIL       0.057367
     65 H28        -64.6040     7.3230    -6.5410 ha         1 YIL       0.130000
     66 H29        -62.7790     6.1220    -5.3530 ha         1 YIL       0.111000
     67 H30        -60.5060     7.1110    -5.2250 ha         1 YIL       0.104000
     68 H31        -62.9430    11.2720    -2.2370 hc         1 YIL       0.035533
     69 H32        -61.8470    11.3950    -0.8440 hc         1 YIL       0.035533
     70 H33        -61.2690    11.7920    -2.4750 hc         1 YIL       0.035533
     71 H34        -57.9680    11.0380    -0.3360 hn         1 YIL       0.328500
     72 H35        -53.6890    13.4390    -2.9160 hn         1 YIL       0.504000
     73 H36        -51.4590    15.4040    -3.5110 hn         1 YIL       0.376400
     74 H37        -51.3140    12.5130    -2.1790 hn         1 YIL       0.453000
     75 H38        -50.6180    13.4840    -3.3420 hn         1 YIL       0.453000
     76 H39        -58.6020     8.6840    -4.1090 hn         1 YIL       0.322500
     77 H40        -63.8980     8.6470    -9.5560 hn         1 YIL       0.313500
     78 H41        -55.9440     8.6300     3.1700 ho         1 YIL       0.473500
     79 O1         -57.1980    10.6260     2.3530 oh         1 YIL      -0.663000
     80 H20        -58.0560    10.2730     2.6860 ho         1 YIL       0.473500
     81 O26        -56.7110     8.9920    -2.3820 o          1 YIL      -0.605100
     82 C02        -61.4950     9.6370    -2.1040 c3         1 YIL      -0.055700
     83 O09        -55.5550     9.0840     2.3930 oh         1 YIL      -0.663000
     84 C20        -54.5390    11.7110    -1.0500 c3         1 YIL      -0.102400
@<TRIPOS>BOND
     1     1     9 1   
     2     1    10 ar  
     3     1    27 ar  
     4     2    16 1   
     5     2    30 2   
     6     2    38 1   
     7     3    22 1   
     8     3    35 1   
     9     3    39 1   
    10     3    40 1   
    11     4     5 ar  
    12     4    20 ar  
    13     4    41 1   
    14     5    17 ar  
    15     5    42 1   
    16     6    31 1   
    17     6    43 1   
    18     6    44 1   
    19     6    84 1   
    20     7    31 1   
    21     7    32 2   
    22     7    33 1   
    23     8     9 1   
    24     8    34 1   
    25     8    37 2   
    26     9    47 1   
    27     9    48 1   
    28    10    22 ar  
    29    10    49 1   
    30    11    50 1   
    31    11    51 1   
    32    11    52 1   
    33    11    82 1   
    34    12    13 1   
    35    12    54 1   
    36    12    55 1   
    37    12    82 1   
    38    13    14 1   
    39    13    34 1   
    40    13    56 1   
    41    14    29 1   
    42    14    81 2   
    43    15    16 1   
    44    15    21 1   
    45    15    29 1   
    46    15    57 1   
    47    16    79 1   
    48    16    83 1   
    49    17    18 ar  
    50    17    30 1   
    51    18    19 ar  
    52    18    38 1   
    53    19    20 ar  
    54    19    58 1   
    55    20    59 1   
    56    21    60 1   
    57    21    61 1   
    58    21    84 1   
    59    22    25 ar  
    60    23    24 1   
    61    23    35 1   
    62    23    36 2   
    63    24    62 1   
    64    24    63 1   
    65    24    64 1   
    66    25    26 ar  
    67    25    65 1   
    68    26    27 ar  
    69    26    66 1   
    70    27    67 1   
    71    28    68 1   
    72    28    69 1   
    73    28    70 1   
    74    28    82 1   
    75    29    71 1   
    76    31    72 1   
    77    32    73 1   
    78    33    74 1   
    79    33    75 1   
    80    34    76 1   
    81    35    77 1   
    82    45    84 1   
    83    46    84 1   
    84    53    82 1   
    85    78    83 1   
    86    79    80 1   
@<TRIPOS>SUBSTRUCTURE
     1 YIL         1 TEMP              0 ****  ****    0 ROOT
