@<TRIPOS>MOLECULE
YIL
   84    86     1     0     0
SMALL
abcg2


@<TRIPOS>ATOM
      1 C30        -61.4480     9.2900    -6.0920 ca         1 YIL      -0.085300
      2 C10        -57.0760     8.8680     1.6600 cc         1 YIL       0.288200
      3 C33        -60.1760    12.0960    -8.3300 c3         1 YIL       0.136300
      4 C16        -59.6550     6.0720     4.1880 ca         1 YIL      -0.111000
      5 C17        -59.4800     7.3780     3.7730 ca         1 YIL      -0.056000
      6 C21        -56.1290    12.1970    -3.6710 c3         1 YIL       0.241800
      7 C23        -56.4810    12.9030    -6.0490 c2         1 YIL       0.827100
      8 C28        -60.4990     8.8900    -3.8120 c          1 YIL       0.598100
      9 C29        -60.8910     8.2700    -5.1430 c3         1 YIL      -0.104100
     10 C31        -60.6050    10.1690    -6.7710 ca         1 YIL      -0.068000
     11 C01        -62.3840     6.3830     0.9580 c3         1 YIL      -0.091600
     12 C03        -60.6150     7.5490    -0.3470 c3         1 YIL      -0.088400
     13 C04        -60.1880     8.5300    -1.4380 c3         1 YIL       0.041700
     14 C05        -58.6620     8.6330    -1.4350 c          1 YIL       0.590100
     15 C07        -56.7720     9.9560    -0.5660 c3         1 YIL       0.127700
     16 C08        -56.5170    10.0880     0.9520 c3         1 YIL       0.382700
     17 C12        -58.4100     7.6730     2.9290 ca         1 YIL       0.088400
     18 C13        -57.5430     6.6490     2.5150 ca         1 YIL      -0.194000
     19 C14        -57.7150     5.3350     2.9350 ca         1 YIL      -0.070000
     20 C15        -58.7800     5.0610     3.7740 ca         1 YIL      -0.096000
     21 C19        -56.3200    11.1810    -1.3640 c3         1 YIL      -0.076400
     22 C32        -61.1090    11.1490    -7.6170 ca         1 YIL      -0.108300
     23 C35        -60.8250    12.5470   -10.6680 c          1 YIL       0.600100
     24 C36        -60.5870    12.1540   -12.1050 c3         1 YIL      -0.180100
     25 C44        -62.4890    11.2450    -7.7900 ca         1 YIL      -0.085000
     26 C45        -63.3370    10.3710    -7.1310 ca         1 YIL      -0.120000
     27 C46        -62.8200     9.3990    -6.2820 ca         1 YIL      -0.101000
     28 C48        -62.8780     8.6480     0.0040 c3         1 YIL      -0.091600
     29 N06        -58.1770     9.6900    -0.7610 ns         1 YIL      -0.499900
     30 N11        -58.1060     8.9150     2.4210 nd         1 YIL      -0.554100
     31 N22        -56.3860    11.9620    -5.0710 nu         1 YIL      -0.934400
     32 N24        -56.7050    12.5260    -7.2610 n2         1 YIL      -0.937100
     33 N25        -56.3990    14.2090    -5.6200 nv         1 YIL      -1.071200
     34 N27        -60.6550     8.1040    -2.7320 ns         1 YIL      -0.492900
     35 N34        -60.1080    11.8640    -9.7580 ns         1 YIL      -0.501900
     36 O43        -61.6110    13.4370   -10.3700 o          1 YIL      -0.618100
     37 O47        -60.0510    10.0230    -3.7270 o          1 YIL      -0.597100
     38 S18        -56.3270     7.3120     1.4760 ss         1 YIL       0.119800
     39 H1         -59.1660    12.0050    -7.9250 h1         1 YIL       0.076700
     40 H2         -60.4920    13.1270    -8.1680 h1         1 YIL       0.076700
     41 H3         -60.4810     5.8260     4.8420 ha         1 YIL       0.121000
     42 H4         -60.1530     8.1650     4.0870 ha         1 YIL       0.132000
     43 H5         -55.0800    12.4600    -3.4810 h1         1 YIL       0.032700
     44 H6         -56.7340    13.0410    -3.3250 h1         1 YIL       0.032700
     45 H7         -57.5440    10.7160    -3.0790 hc         1 YIL       0.063700
     46 H8         -55.8970    10.1150    -3.1870 hc         1 YIL       0.063700
     47 H9         -61.6010     7.4560    -4.9930 hc         1 YIL       0.064200
     48 H10        -59.9830     7.8180    -5.5560 hc         1 YIL       0.064200
     49 H11        -59.5320    10.0890    -6.6370 ha         1 YIL       0.123000
     50 H12        -61.8530     5.4380     0.8270 hc         1 YIL       0.035533
     51 H13        -62.0510     6.8210     1.9030 hc         1 YIL       0.035533
     52 H14        -63.4470     6.1580     1.0530 hc         1 YIL       0.035533
     53 H15        -62.5050     6.8660    -1.1140 hc         1 YIL       0.043700
     54 H16        -60.1320     6.5830    -0.5250 hc         1 YIL       0.058200
     55 H17        -60.2200     7.9210     0.6030 hc         1 YIL       0.058200
     56 H18        -60.6160     9.5120    -1.2180 h1         1 YIL       0.076700
     57 H19        -56.2240     9.0830    -0.9270 h1         1 YIL       0.095700
     58 H21        -57.0430     4.5500     2.6160 ha         1 YIL       0.129000
     59 H22        -58.9380     4.0470     4.1150 ha         1 YIL       0.119000
     60 H23        -55.2700    11.3880    -1.1480 hc         1 YIL       0.059700
     61 H24        -56.8900    12.0590    -1.0480 hc         1 YIL       0.059700
     62 H25        -61.5360    11.8750   -12.5640 hc         1 YIL       0.057367
     63 H26        -60.2040    13.0140   -12.6550 hc         1 YIL       0.057367
     64 H27        -59.8890    11.3280   -12.2260 hc         1 YIL       0.057367
     65 H28        -62.8990    12.0090    -8.4400 ha         1 YIL       0.130000
     66 H29        -64.4080    10.4500    -7.2690 ha         1 YIL       0.111000
     67 H30        -63.4900     8.7230    -5.7640 ha         1 YIL       0.104000
     68 H31        -63.9400     8.4610     0.1680 hc         1 YIL       0.035533
     69 H32        -62.4970     9.1820     0.8780 hc         1 YIL       0.035533
     70 H33        -62.7970     9.3140    -0.8560 hc         1 YIL       0.035533
     71 H34        -58.8270    10.3830    -0.4190 hn         1 YIL       0.328500
     72 H35        -56.3330    11.0140    -5.4030 hn         1 YIL       0.504000
     73 H36        -56.7330    13.3240    -7.8840 hn         1 YIL       0.376400
     74 H37        -55.7970    14.4100    -4.8370 hn         1 YIL       0.453000
     75 H38        -56.2990    14.8910    -6.3540 hn         1 YIL       0.453000
     76 H39        -60.9420     7.1450    -2.8560 hn         1 YIL       0.322500
     77 H40        -59.5070    11.1210   -10.0750 hn         1 YIL       0.313500
     78 H41        -54.9260    10.2660     2.0520 ho         1 YIL       0.473500
     79 O1         -57.1600    11.2210     1.4290 oh         1 YIL      -0.663000
     80 H20        -57.7030    10.9880     2.1960 ho         1 YIL       0.473500
     81 O26        -57.9700     7.7830    -1.9700 o          1 YIL      -0.605100
     82 C02        -62.1250     7.3390    -0.2030 c3         1 YIL      -0.055700
     83 O09        -55.1380    10.1480     1.1170 oh         1 YIL      -0.663000
     84 C20        -56.5040    10.9660    -2.8610 c3         1 YIL      -0.102400
@<TRIPOS>BOND
     1     1     9 1   
     2     1    10 ar  
     3     1    27 ar  
     4     2    16 1   
     5     2    30 2   
     6     2    38 1   
     7     3    22 1   
     8     3    35 1   
     9     3    39 1   
    10     3    40 1   
    11     4     5 ar  
    12     4    20 ar  
    13     4    41 1   
    14     5    17 ar  
    15     5    42 1   
    16     6    31 1   
    17     6    43 1   
    18     6    44 1   
    19     6    84 1   
    20     7    31 1   
    21     7    32 2   
    22     7    33 1   
    23     8     9 1   
    24     8    34 1   
    25     8    37 2   
    26     9    47 1   
    27     9    48 1   
    28    10    22 ar  
    29    10    49 1   
    30    11    50 1   
    31    11    51 1   
    32    11    52 1   
    33    11    82 1   
    34    12    13 1   
    35    12    54 1   
    36    12    55 1   
    37    12    82 1   
    38    13    14 1   
    39    13    34 1   
    40    13    56 1   
    41    14    29 1   
    42    14    81 2   
    43    15    16 1   
    44    15    21 1   
    45    15    29 1   
    46    15    57 1   
    47    16    79 1   
    48    16    83 1   
    49    17    18 ar  
    50    17    30 1   
    51    18    19 ar  
    52    18    38 1   
    53    19    20 ar  
    54    19    58 1   
    55    20    59 1   
    56    21    60 1   
    57    21    61 1   
    58    21    84 1   
    59    22    25 ar  
    60    23    24 1   
    61    23    35 1   
    62    23    36 2   
    63    24    62 1   
    64    24    63 1   
    65    24    64 1   
    66    25    26 ar  
    67    25    65 1   
    68    26    27 ar  
    69    26    66 1   
    70    27    67 1   
    71    28    68 1   
    72    28    69 1   
    73    28    70 1   
    74    28    82 1   
    75    29    71 1   
    76    31    72 1   
    77    32    73 1   
    78    33    74 1   
    79    33    75 1   
    80    34    76 1   
    81    35    77 1   
    82    45    84 1   
    83    46    84 1   
    84    53    82 1   
    85    78    83 1   
    86    79    80 1   
@<TRIPOS>SUBSTRUCTURE
     1 YIL         1 TEMP              0 ****  ****    0 ROOT
