@<TRIPOS>MOLECULE
YIN
   47    52     1     0     0
SMALL
No Charge or Current Charge


@<TRIPOS>ATOM
      1 C1          -0.2140    -1.9440     0.5070 ca         1 YIN      -0.094300
      2 N1          -2.4320    -2.8510    -0.1540 na         1 YIN       0.006800
      3 O1          -2.7160     1.5480     1.8970 os         1 YIN      -0.334100
      4 Br1          4.4320    -1.5460    -0.2790 br         1 YIN      -0.096100
      5 C2           0.7060    -2.1960     1.5450 ca         1 YIN      -0.085500
      6 N2          -3.7890    -3.5150    -1.6650 na         1 YIN      -0.379500
      7 C3           2.0880    -2.0900     1.3070 ca         1 YIN      -0.087000
      8 N3          -3.8600    -1.1610    -1.1060 ne         1 YIN      -0.409600
      9 C4           2.5550    -1.7310     0.0320 ca         1 YIN      -0.008900
     10 N4          -2.2290    -4.2160    -0.2680 n2         1 YIN      -0.471800
     11 C5           1.6460    -1.4930    -1.0110 ca         1 YIN      -0.087000
     12 C6           0.2650    -1.6010    -0.7750 ca         1 YIN      -0.085500
     13 C7          -1.7760     0.4750     1.6630 c6         1 YIN       0.297800
     14 C8          -3.0630    -4.5840    -1.1970 cc         1 YIN       0.421400
     15 C9          -2.3410    -0.5690     0.7080 c2         1 YIN      -0.320400
     16 C10         -1.7230    -1.9700     0.7900 c6         1 YIN       0.250800
     17 C11         -3.4030    -2.3800    -1.0070 cd         1 YIN       0.066000
     18 C12         -3.3100    -0.2400    -0.1800 ce         1 YIN       0.268400
     19 C13         -4.7220     1.6150    -1.2130 ca         1 YIN      -0.037000
     20 C14         -5.2400     2.9210    -1.1450 ca         1 YIN      -0.155000
     21 C15         -4.9130     3.7570    -0.0650 ca         1 YIN      -0.067000
     22 C16         -4.0620     3.2870     0.9490 ca         1 YIN      -0.147000
     23 C17         -3.5290     1.9910     0.8760 ca         1 YIN       0.153100
     24 C18         -3.8570     1.1430    -0.2000 ca         1 YIN      -0.130800
     25 C19         -0.3140     1.5860    -0.1350 ca         1 YIN      -0.089000
     26 C20         -0.4490     1.0820     1.1770 ca         1 YIN      -0.098300
     27 C21          0.6720     1.0890     2.0340 ca         1 YIN      -0.089000
     28 C22          1.9120     1.5700     1.5810 ca         1 YIN      -0.089000
     29 C23          2.0390     2.0530     0.2690 ca         1 YIN      -0.011900
     30 C24          0.9270     2.0690    -0.5870 ca         1 YIN      -0.089000
     31 H2           0.3530    -2.4540     2.5410 ha         1 YIN       0.119000
     32 H3           2.7940    -2.2720     2.1140 ha         1 YIN       0.131500
     33 H5           2.0090    -1.2100    -1.9960 ha         1 YIN       0.131500
     34 H6          -0.4340    -1.3910    -1.5820 ha         1 YIN       0.119000
     35 H8          -3.1860    -5.5990    -1.5580 h5         1 YIN       0.073100
     36 H13         -4.9970     0.9800    -2.0520 ha         1 YIN       0.132000
     37 H14         -5.9020     3.2820    -1.9290 ha         1 YIN       0.116000
     38 H15         -5.3210     4.7650    -0.0120 ha         1 YIN       0.114000
     39 H16         -3.8120     3.9280     1.7900 ha         1 YIN       0.129000
     40 H19         -1.1610     1.5860    -0.8150 ha         1 YIN       0.120500
     41 H21          0.5900     0.7010     3.0470 ha         1 YIN       0.120500
     42 H22          2.7750     1.5570     2.2430 ha         1 YIN       0.130000
     43 H24          1.0260     2.4430    -1.6030 ha         1 YIN       0.130000
     44 HN2         -4.5030    -3.5680    -2.3780 hn         1 YIN       0.389000
     45 H10         -1.8910    -2.3700     1.7990 h1         1 YIN       0.064700
     46 H7          -1.5920    -0.0060     2.6360 h1         1 YIN       0.079700
     47 Br2          3.7340     2.6780    -0.3560 br         1 YIN      -0.101100
@<TRIPOS>BOND
     1     1     5 ar  
     2     1    12 ar  
     3     1    16 1   
     4     2    10 1   
     5     2    16 1   
     6     2    17 1   
     7     3    13 1   
     8     3    23 1   
     9     4     9 1   
    10     5     7 ar  
    11     5    31 1   
    12     6    14 1   
    13     6    17 1   
    14     6    44 1   
    15     7     9 ar  
    16     7    32 1   
    17     8    17 2   
    18     8    18 1   
    19     9    11 ar  
    20    10    14 2   
    21    11    12 ar  
    22    11    33 1   
    23    12    34 1   
    24    13    15 1   
    25    13    26 1   
    26    13    46 1   
    27    14    35 1   
    28    15    16 1   
    29    15    18 2   
    30    16    45 1   
    31    18    24 1   
    32    19    20 ar  
    33    19    24 ar  
    34    19    36 1   
    35    20    21 ar  
    36    20    37 1   
    37    21    22 ar  
    38    21    38 1   
    39    22    23 ar  
    40    22    39 1   
    41    23    24 ar  
    42    25    26 ar  
    43    25    30 ar  
    44    25    40 1   
    45    26    27 ar  
    46    27    28 ar  
    47    27    41 1   
    48    28    29 ar  
    49    28    42 1   
    50    29    30 ar  
    51    29    47 1   
    52    30    43 1   
@<TRIPOS>SUBSTRUCTURE
     1 YIN         1 TEMP              0 ****  ****    0 ROOT
