@<TRIPOS>MOLECULE
YIN
   47    52     1     0     0
SMALL
abcg2


@<TRIPOS>ATOM
      1 C1          -0.2440    -1.9980     0.6350 ca         1 YIN      -0.094300
      2 N1          -2.4060    -2.7600    -0.2430 na         1 YIN       0.006800
      3 O1          -2.6280     1.4840     1.9020 os         1 YIN      -0.334100
      4 BR1          4.3840    -1.5500     0.3940 br         1 YIN      -0.096100
      5 C2           0.5500    -2.3370     1.7190 ca         1 YIN      -0.085500
      6 N2          -3.7360    -3.3950    -1.7790 na         1 YIN      -0.379500
      7 C3           1.9330    -2.2260     1.6550 ca         1 YIN      -0.087000
      8 N3          -3.9400    -1.1290    -1.0480 ne         1 YIN      -0.409600
      9 C4           2.5110    -1.7720     0.4820 ca         1 YIN      -0.008900
     10 N4          -2.1120    -4.0660    -0.4690 n2         1 YIN      -0.471800
     11 C5           1.7370    -1.4570    -0.6280 ca         1 YIN      -0.087000
     12 C6           0.3620    -1.5770    -0.5430 ca         1 YIN      -0.085500
     13 C7          -1.6970     0.4620     1.5520 c6         1 YIN       0.297800
     14 C8          -2.9260    -4.4200    -1.4020 cc         1 YIN       0.421400
     15 C9          -2.3200    -0.5860     0.6770 c2         1 YIN      -0.320400
     16 C10         -1.7500    -1.9810     0.7820 c6         1 YIN       0.250800
     17 C11         -3.4110    -2.3120    -1.0260 cd         1 YIN       0.066000
     18 C12         -3.3320    -0.2670    -0.1590 ce         1 YIN       0.268400
     19 C13         -4.7340     1.6050    -1.0720 ca         1 YIN      -0.037000
     20 C14         -5.2280     2.8980    -0.9740 ca         1 YIN      -0.155000
     21 C15         -4.8420     3.7010     0.0920 ca         1 YIN      -0.067000
     22 C16         -3.9570     3.2230     1.0480 ca         1 YIN      -0.147000
     23 C17         -3.4600     1.9320     0.9360 ca         1 YIN       0.153100
     24 C18         -3.8470     1.1050    -0.1230 ca         1 YIN      -0.130800
     25 C19         -0.4130     1.5690    -0.3460 ca         1 YIN      -0.089000
     26 C20         -0.4410     1.0690     0.9540 ca         1 YIN      -0.098300
     27 C21          0.7260     1.1050     1.7040 ca         1 YIN      -0.089000
     28 C22          1.9110     1.5990     1.1750 ca         1 YIN      -0.089000
     29 C23          1.9100     2.0860    -0.1210 ca         1 YIN      -0.011900
     30 C24          0.7520     2.0880    -0.8850 ca         1 YIN      -0.089000
     31 H2           0.0900    -2.6760     2.6400 ha         1 YIN       0.119000
     32 H3           2.5350    -2.4820     2.5160 ha         1 YIN       0.131500
     33 H5           2.1920    -1.1000    -1.5420 ha         1 YIN       0.131500
     34 H6          -0.2400    -1.3050    -1.4020 ha         1 YIN       0.119000
     35 H8          -2.9750    -5.4020    -1.8410 h5         1 YIN       0.073100
     36 H13         -5.0420     0.9660    -1.8890 ha         1 YIN       0.132000
     37 H14         -5.9120     3.2750    -1.7220 ha         1 YIN       0.116000
     38 H15         -5.2230     4.7110     0.1790 ha         1 YIN       0.114000
     39 H16         -3.6480     3.8460     1.8770 ha         1 YIN       0.129000
     40 H19         -1.2940     1.5310    -0.9730 ha         1 YIN       0.120500
     41 H21          0.7270     0.7190     2.7160 ha         1 YIN       0.120500
     42 H22          2.8120     1.5870     1.7720 ha         1 YIN       0.130000
     43 H24          0.7530     2.4650    -1.8990 ha         1 YIN       0.130000
     44 HN2         -4.4520    -3.4170    -2.4890 hn         1 YIN       0.389000
     45 H10         -1.9890    -2.4110     1.7660 h1         1 YIN       0.064700
     46 H7          -1.4190     0.0090     2.5100 h1         1 YIN       0.079700
     47 BR2          3.5180     2.7360    -0.8700 br         1 YIN      -0.101100
@<TRIPOS>BOND
     1     1     5 ar  
     2     1    12 ar  
     3     1    16 1   
     4     2    10 1   
     5     2    16 1   
     6     2    17 1   
     7     3    13 1   
     8     3    23 1   
     9     4     9 1   
    10     5     7 ar  
    11     5    31 1   
    12     6    14 1   
    13     6    17 1   
    14     6    44 1   
    15     7     9 ar  
    16     7    32 1   
    17     8    17 2   
    18     8    18 1   
    19     9    11 ar  
    20    10    14 2   
    21    11    12 ar  
    22    11    33 1   
    23    12    34 1   
    24    13    15 1   
    25    13    26 1   
    26    13    46 1   
    27    14    35 1   
    28    15    16 1   
    29    15    18 2   
    30    16    45 1   
    31    18    24 1   
    32    19    20 ar  
    33    19    24 ar  
    34    19    36 1   
    35    20    21 ar  
    36    20    37 1   
    37    21    22 ar  
    38    21    38 1   
    39    22    23 ar  
    40    22    39 1   
    41    23    24 ar  
    42    25    26 ar  
    43    25    30 ar  
    44    25    40 1   
    45    26    27 ar  
    46    27    28 ar  
    47    27    41 1   
    48    28    29 ar  
    49    28    42 1   
    50    29    30 ar  
    51    29    47 1   
    52    30    43 1   
@<TRIPOS>SUBSTRUCTURE
     1 YIN         1 TEMP              0 ****  ****    0 ROOT
