@<TRIPOS>MOLECULE
YIO
   24    24     1     0     0
SMALL
No Charge or Current Charge


@<TRIPOS>ATOM
      1 C1          -0.7640     0.9230     0.4010 c6         1 YIO       0.291300
      2 C2          -1.4480    -0.4180    -0.0260 c6         1 YIO       0.114300
      3 C3          -0.5970    -1.6190     0.4930 c6         1 YIO       0.143300
      4 C4           0.8890    -1.4980     0.0330 c6         1 YIO       0.150300
      5 C5           1.4310    -0.0890     0.4510 c6         1 YIO       0.162300
      6 C6           2.9040     0.1530    -0.0150 c3         1 YIO       0.173600
      7 O2          -2.8080    -0.5250     0.4620 oh         1 YIO      -0.729000
      8 O3          -1.1700    -2.8570     0.0330 oh         1 YIO      -0.667000
      9 O4           0.9620    -1.7230    -1.3900 oh         1 YIO      -0.709000
     10 O5           0.5900     0.9660    -0.0860 os         1 YIO      -0.407000
     11 O6           3.4330     1.4270     0.4120 oh         1 YIO      -0.718000
     12 S1          -1.6750     2.3700    -0.3450 sh         1 YIO      -0.414800
     13 H1          -0.7730     1.0250     1.4970 h2         1 YIO       0.057700
     14 H2          -1.4450    -0.4460    -1.1260 h1         1 YIO       0.076700
     15 H3          -0.6120    -1.5950     1.5930 h1         1 YIO       0.047700
     16 HA          -3.2870     0.2820     0.1510 ho         1 YIO       0.528000
     17 H4           1.4760    -2.2640     0.5610 h1         1 YIO       0.049700
     18 HB          -2.1410    -2.7490     0.1680 ho         1 YIO       0.470000
     19 H5           1.4170    -0.0200     1.5480 h1         1 YIO       0.049700
     20 HC           0.3110    -2.4480    -1.5550 ho         1 YIO       0.522000
     21 H61C         3.5240    -0.6630     0.3820 h1         1 YIO       0.039700
     22 H62C         2.9370     0.0820    -1.1100 h1         1 YIO       0.039700
     23 HO6          4.3260     1.5190     0.0040 ho         1 YIO       0.507000
     24 HS1         -0.8060     3.3030     0.1140 hs         1 YIO       0.222800
@<TRIPOS>BOND
     1     1     2 1   
     2     1    10 1   
     3     1    12 1   
     4     1    13 1   
     5     2     3 1   
     6     2     7 1   
     7     2    14 1   
     8     3     4 1   
     9     3     8 1   
    10     3    15 1   
    11     4     5 1   
    12     4     9 1   
    13     4    17 1   
    14     5     6 1   
    15     5    10 1   
    16     5    19 1   
    17     6    11 1   
    18     6    21 1   
    19     6    22 1   
    20     7    16 1   
    21     8    18 1   
    22     9    20 1   
    23    11    23 1   
    24    12    24 1   
@<TRIPOS>SUBSTRUCTURE
     1 YIO         1 TEMP              0 ****  ****    0 ROOT
