@<TRIPOS>MOLECULE
YIO
   24    24     1     0     0
SMALL
abcg2


@<TRIPOS>ATOM
      1 C1          -0.6710     0.9490     0.2930 c6         1 YIO       0.291300
      2 C2          -1.3970    -0.3580    -0.0490 c6         1 YIO       0.114300
      3 C3          -0.5950    -1.5320     0.5030 c6         1 YIO       0.143300
      4 C4           0.8530    -1.4650     0.0290 c6         1 YIO       0.150300
      5 C5           1.4230    -0.1000     0.3890 c6         1 YIO       0.162300
      6 C6           2.8540     0.0740    -0.0710 c3         1 YIO       0.173600
      7 O2          -2.6700    -0.4110     0.5430 oh         1 YIO      -0.729000
      8 O3          -1.1230    -2.7710     0.1010 oh         1 YIO      -0.667000
      9 O4           0.9640    -1.6490    -1.3600 oh         1 YIO      -0.709000
     10 O5           0.6450     0.9380    -0.1820 os         1 YIO      -0.407000
     11 O6           3.3690     1.2520     0.5020 oh         1 YIO      -0.718000
     12 S1          -1.5590     2.3250    -0.4870 sh         1 YIO      -0.414800
     13 H1          -0.7020     1.1020     1.3810 h2         1 YIO       0.057700
     14 H2          -1.4550    -0.4510    -1.1430 h1         1 YIO       0.076700
     15 H3          -0.5870    -1.4450     1.6010 h1         1 YIO       0.047700
     16 HA          -3.2300     0.2580     0.1350 ho         1 YIO       0.528000
     17 H4           1.4290    -2.2240     0.5790 h1         1 YIO       0.049700
     18 HB          -2.0620    -2.7920     0.3140 ho         1 YIO       0.470000
     19 H5           1.4020    -0.0220     1.4890 h1         1 YIO       0.049700
     20 HC           0.5360    -2.4800    -1.5900 ho         1 YIO       0.522000
     21 H61C         3.4190    -0.8130     0.2440 h1         1 YIO       0.039700
     22 H62C         2.8890     0.1060    -1.1660 h1         1 YIO       0.039700
     23 HO6          4.2510     1.3950     0.1490 ho         1 YIO       0.507000
     24 HS1         -1.3100     3.2510     0.4450 hs         1 YIO       0.222800
@<TRIPOS>BOND
     1     1     2 1   
     2     1    10 1   
     3     1    12 1   
     4     1    13 1   
     5     2     3 1   
     6     2     7 1   
     7     2    14 1   
     8     3     4 1   
     9     3     8 1   
    10     3    15 1   
    11     4     5 1   
    12     4     9 1   
    13     4    17 1   
    14     5     6 1   
    15     5    10 1   
    16     5    19 1   
    17     6    11 1   
    18     6    21 1   
    19     6    22 1   
    20     7    16 1   
    21     8    18 1   
    22     9    20 1   
    23    11    23 1   
    24    12    24 1   
@<TRIPOS>SUBSTRUCTURE
     1 YIO         1 TEMP              0 ****  ****    0 ROOT
