@<TRIPOS>MOLECULE
YIP
   20    21     1     0     0
SMALL
No Charge or Current Charge


@<TRIPOS>ATOM
      1 C3           1.6750    -0.6160    -0.0050 ca         1 YIP      -0.153000
      2 C2           3.0280    -0.2460     0.0020 ca         1 YIP       0.156000
      3 C14          3.3900     1.1100     0.0010 ca         1 YIP      -0.173000
      4 C13          2.3950     2.1010    -0.0080 ca         1 YIP      -0.068000
      5 C12          1.0380     1.7330    -0.0150 ca         1 YIP      -0.212000
      6 C4           0.6740     0.3680    -0.0140 ca         1 YIP       0.186100
      7 O5          -0.6400    -0.0510    -0.0210 os         1 YIP      -0.320100
      8 C6          -1.7430     0.8800    -0.0300 c3         1 YIP       0.168300
      9 C7          -3.0570     0.1160    -0.0340 cc         1 YIP       0.383300
     10 N11         -3.6490    -0.1830    -1.1780 n1         1 YIP      -0.473000
     11 N10         -4.7460    -0.8070    -0.7370 nd         1 YIP      -0.169000
     12 N9          -4.7670    -0.8490     0.6340 nd         1 YIP      -0.169000
     13 N8          -3.7130    -0.2690     1.0890 nc         1 YIP      -0.473000
     14 Cl1          4.2760    -1.4850     0.0130 cl         1 YIP      -0.234000
     15 H13          2.6750     3.1530    -0.0080 ha         1 YIP       0.101000
     16 H12          0.2870     2.5180    -0.0210 ha         1 YIP       0.123000
     17 H14          4.4400     1.3920     0.0070 ha         1 YIP       0.116000
     18 H3           1.4010    -1.6660    -0.0050 ha         1 YIP       0.145000
     19 H61C        -1.7080     1.5250     0.8570 h1         1 YIP       0.032200
     20 H62C        -1.6970     1.5210    -0.9200 h1         1 YIP       0.032200
@<TRIPOS>BOND
     1     1     2 ar  
     2     1     6 ar  
     3     1    18 1   
     4     2     3 ar  
     5     2    14 1   
     6     3     4 ar  
     7     3    17 1   
     8     4     5 ar  
     9     4    15 1   
    10     5     6 ar  
    11     5    16 1   
    12     6     7 1   
    13     7     8 1   
    14     8     9 1   
    15     8    19 1   
    16     8    20 1   
    17     9    10 2   
    18     9    13 1   
    19    10    11 2   
    20    11    12 1   
    21    12    13 2   
@<TRIPOS>SUBSTRUCTURE
     1 YIP         1 TEMP              0 ****  ****    0 ROOT
