@<TRIPOS>MOLECULE
YIP
   20    21     1     0     0
SMALL
abcg2


@<TRIPOS>ATOM
      1 C3           1.6200    -0.6030    -0.0000 ca         1 YIP      -0.153000
      2 C2           2.9500    -0.2320    -0.0110 ca         1 YIP       0.156000
      3 C14          3.3450     1.1000    -0.0160 ca         1 YIP      -0.173000
      4 C13          2.3560     2.0680    -0.0050 ca         1 YIP      -0.068000
      5 C12          1.0070     1.7330     0.0130 ca         1 YIP      -0.212000
      6 C4           0.6350     0.3900     0.0140 ca         1 YIP       0.186100
      7 O5          -0.6340    -0.0500     0.0280 os         1 YIP      -0.320100
      8 C6          -1.6940     0.9060    -0.0170 c3         1 YIP       0.168300
      9 C7          -2.9750     0.1590    -0.0430 cc         1 YIP       0.383300
     10 N11         -3.5820    -0.2490    -1.1510 n1         1 YIP      -0.473000
     11 N10         -4.6570    -0.8850    -0.7260 nd         1 YIP      -0.169000
     12 N9          -4.6960    -0.8620     0.5740 nd         1 YIP      -0.169000
     13 N8          -3.6500    -0.2070     1.0400 nc         1 YIP      -0.473000
     14 CL1          4.1630    -1.4720    -0.0260 cl         1 YIP      -0.234000
     15 H13          2.6360     3.1130    -0.0110 ha         1 YIP       0.101000
     16 H12          0.2730     2.5250     0.0190 ha         1 YIP       0.123000
     17 H14          4.3920     1.3690    -0.0280 ha         1 YIP       0.116000
     18 H3           1.3310    -1.6460     0.0010 ha         1 YIP       0.145000
     19 H61C        -1.6550     1.5570     0.8610 h1         1 YIP       0.032200
     20 H62C        -1.6030     1.5290    -0.9110 h1         1 YIP       0.032200
@<TRIPOS>BOND
     1     1     2 ar  
     2     1     6 ar  
     3     1    18 1   
     4     2     3 ar  
     5     2    14 1   
     6     3     4 ar  
     7     3    17 1   
     8     4     5 ar  
     9     4    15 1   
    10     5     6 ar  
    11     5    16 1   
    12     6     7 1   
    13     7     8 1   
    14     8     9 1   
    15     8    19 1   
    16     8    20 1   
    17     9    10 2   
    18     9    13 1   
    19    10    11 2   
    20    11    12 1   
    21    12    13 2   
@<TRIPOS>SUBSTRUCTURE
     1 YIP         1 TEMP              0 ****  ****    0 ROOT
