@<TRIPOS>MOLECULE
YIQ
   47    50     1     0     0
SMALL
No Charge or Current Charge


@<TRIPOS>ATOM
      1 CAU         -5.1440     0.9690     0.1490 ca         1 YIQ      -0.147000
      2 CAV         -6.5430     0.9650     0.0830 ca         1 YIQ      -0.027200
      3 NAG         -7.4320     2.0090     0.2920 na         1 YIQ      -0.221700
      4 CAZ         -8.7610     1.5590     0.1230 cc         1 YIQ      -0.167100
      5 CBA         -8.6300     0.2140    -0.1920 cd         1 YIQ      -0.233200
      6 CAW         -7.2420    -0.1660    -0.2190 ca         1 YIQ      -0.121800
      7 CAX         -6.6120    -1.3860    -0.4810 ca         1 YIQ      -0.031000
      8 CAY         -5.2020    -1.4130    -0.4230 ca         1 YIQ      -0.190000
      9 CAT         -4.4570    -0.2460    -0.1100 ca         1 YIQ      -0.012000
     10 NAF         -3.0410    -0.3700    -0.0740 ns         1 YIQ      -0.146000
     11 CAS         -2.0270     0.5430     0.1900 c          1 YIQ       0.639300
     12 OBB         -2.2110     1.7250     0.4630 o          1 YIQ      -0.569100
     13 CAQ         -0.6680    -0.0620     0.1090 cc         1 YIQ      -0.163300
     14 NAE         -0.2310    -1.3820    -0.1860 na         1 YIQ      -0.220700
     15 CAR          0.5130     0.6420     0.3310 cd         1 YIQ      -0.139200
     16 CAO          1.6560    -0.2200     0.1790 ca         1 YIQ      -0.125800
     17 CAP          3.0300     0.0230     0.2960 ca         1 YIQ      -0.006000
     18 CAN          1.1520    -1.4470    -0.1370 ca         1 YIQ      -0.026200
     19 CAM          1.9930    -2.5390    -0.3720 ca         1 YIQ      -0.142000
     20 CAL          3.3870    -2.3370    -0.2620 ca         1 YIQ      -0.067000
     21 CAK          3.9210    -1.0640     0.0940 ca         1 YIQ      -0.147900
     22 CAI          5.4050    -0.8500     0.1630 ce         1 YIQ       0.360900
     23 CAJ          6.2730    -1.9830     0.7030 c3         1 YIQ      -0.165400
     24 NAD          5.8790     0.3330    -0.1220 n2         1 YIQ      -0.348400
     25 NAC          7.2360     0.5850    -0.2140 nu         1 YIQ      -0.618500
     26 CAH          7.8010     1.7750    -0.5430 c2         1 YIQ       0.809100
     27 NAB          9.1050     1.6860    -0.3180 nv         1 YIQ      -1.072200
     28 NAA          7.2040     2.7290    -1.1000 n2         1 YIQ      -0.828100
     29 HAU         -4.6250     1.8910     0.3930 ha         1 YIQ       0.147000
     30 HAG         -7.1610     2.9590     0.5310 hn         1 YIQ       0.352000
     31 HAZ         -9.6350     2.1970     0.2350 h4         1 YIQ       0.212000
     32 HBA         -9.4650    -0.4560    -0.3910 ha         1 YIQ       0.204000
     33 HAX         -7.1860    -2.2780    -0.7210 ha         1 YIQ       0.115000
     34 HAY         -4.6840    -2.3490    -0.6230 ha         1 YIQ       0.105000
     35 HAF         -2.7120    -1.3020    -0.2810 hn         1 YIQ       0.148000
     36 HAE         -0.8300    -2.1720    -0.4020 hn         1 YIQ       0.349000
     37 HAR          0.5590     1.7000     0.5840 ha         1 YIQ       0.224000
     38 HAP          3.3920     1.0180     0.5460 ha         1 YIQ       0.143000
     39 HAM          1.5890    -3.5120    -0.6390 ha         1 YIQ       0.116000
     40 HAL          4.0510    -3.1730    -0.4670 ha         1 YIQ       0.110000
     41 HAJ1         6.8960    -2.4150    -0.0890 hc         1 YIQ       0.046700
     42 HAJ2         6.9370    -1.6290     1.5000 hc         1 YIQ       0.046700
     43 HAJ3         5.6760    -2.7920     1.1360 hc         1 YIQ       0.046700
     44 HAB1         9.3080     1.4680     0.6500 hn         1 YIQ       0.452500
     45 HAB2         9.6300     2.4810    -0.6590 hn         1 YIQ       0.452500
     46 HAA          7.8890     3.4660    -1.2870 hn         1 YIQ       0.376400
     47 HAC          7.9430    -0.1370    -0.0980 hn         1 YIQ       0.481000
@<TRIPOS>BOND
     1     1     2 ar  
     2     1     9 ar  
     3     1    29 1   
     4     2     3 1   
     5     2     6 ar  
     6     3     4 1   
     7     3    30 1   
     8     4     5 2   
     9     4    31 1   
    10     5     6 1   
    11     5    32 1   
    12     6     7 ar  
    13     7     8 ar  
    14     7    33 1   
    15     8     9 ar  
    16     8    34 1   
    17     9    10 1   
    18    10    11 1   
    19    10    35 1   
    20    11    12 2   
    21    11    13 1   
    22    13    14 1   
    23    13    15 2   
    24    14    18 1   
    25    14    36 1   
    26    15    16 1   
    27    15    37 1   
    28    16    17 ar  
    29    16    18 ar  
    30    17    21 ar  
    31    17    38 1   
    32    18    19 ar  
    33    19    20 ar  
    34    19    39 1   
    35    20    21 ar  
    36    20    40 1   
    37    21    22 1   
    38    22    23 1   
    39    22    24 2   
    40    23    41 1   
    41    23    42 1   
    42    23    43 1   
    43    24    25 1   
    44    25    26 1   
    45    25    47 1   
    46    26    27 1   
    47    26    28 2   
    48    27    44 1   
    49    27    45 1   
    50    28    46 1   
@<TRIPOS>SUBSTRUCTURE
     1 YIQ         1 TEMP              0 ****  ****    0 ROOT
