@<TRIPOS>MOLECULE
YIQ
   47    50     1     0     0
SMALL
bcc


@<TRIPOS>ATOM
      1 CAU         -5.0130     0.9120    -0.2880 ca         1 YIQ      -0.165000
      2 CAV         -6.4030     0.8860    -0.1790 ca         1 YIQ      -0.027200
      3 NAG         -7.3100     1.8580    -0.4810 na         1 YIQ      -0.171400
      4 CAZ         -8.5720     1.4010    -0.2230 cc         1 YIQ      -0.117100
      5 CBA         -8.5110     0.1230     0.2540 cd         1 YIQ      -0.183200
      6 CAW         -7.1260    -0.2310     0.2910 ca         1 YIQ      -0.121800
      7 CAX         -6.4070    -1.3710     0.6660 ca         1 YIQ      -0.049000
      8 CAY         -5.0350    -1.3630     0.5670 ca         1 YIQ      -0.208000
      9 CAT         -4.3310    -0.2320     0.0940 ca         1 YIQ       0.080600
     10 NAF         -2.9370    -0.3710     0.0190 ns         1 YIQ      -0.472100
     11 CAS         -1.9970     0.5930    -0.1360 c          1 YIQ       0.706300
     12 OBB         -2.2350     1.7880    -0.2000 o          1 YIQ      -0.569100
     13 CAQ         -0.6080     0.0990    -0.2060 cc         1 YIQ      -0.163300
     14 NAE         -0.2560    -1.1840    -0.5540 na         1 YIQ      -0.170400
     15 CAR          0.5180     0.8160     0.0940 cd         1 YIQ      -0.089200
     16 CAO          1.6260    -0.0630    -0.0790 ca         1 YIQ      -0.125800
     17 CAP          3.0060     0.0780     0.0910 ca         1 YIQ      -0.024000
     18 CAN          1.0990    -1.3020    -0.5020 ca         1 YIQ      -0.026200
     19 CAM          1.9240    -2.3890    -0.7860 ca         1 YIQ      -0.160000
     20 CAL          3.2790    -2.2200    -0.6110 ca         1 YIQ      -0.085000
     21 CAK          3.8400    -1.0000    -0.1680 ca         1 YIQ      -0.147900
     22 CAI          5.3040    -0.8760     0.0020 ce         1 YIQ       0.360900
     23 CAJ          6.1300    -2.0990     0.2820 c3         1 YIQ      -0.165400
     24 NAD          5.7930     0.3020    -0.0870 n2         1 YIQ      -0.348400
     25 NAC          7.1080     0.4750     0.0840 nu         1 YIQ      -0.563300
     26 CAH          7.6730     1.7260    -0.0510 c2         1 YIQ       0.809100
     27 NAB          9.0360     1.6890     0.1540 nv         1 YIQ      -0.961800
     28 NAA          6.9730     2.7420    -0.3730 n2         1 YIQ      -0.828100
     29 HAU         -4.5070     1.7880    -0.6590 ha         1 YIQ       0.165000
     30 HAG         -7.0900     2.7700    -0.8440 hn         1 YIQ       0.301700
     31 HAZ         -9.4290     2.0300    -0.4030 h4         1 YIQ       0.162000
     32 HBA         -9.3500    -0.4900     0.5400 ha         1 YIQ       0.154000
     33 HAX         -6.9150    -2.2540     1.0320 ha         1 YIQ       0.133000
     34 HAY         -4.4760    -2.2430     0.8620 ha         1 YIQ       0.123000
     35 HAF         -2.6040    -1.3000     0.2320 hn         1 YIQ       0.314500
     36 HAE         -0.8700    -1.8790    -0.9490 hn         1 YIQ       0.298700
     37 HAR          0.5440     1.8410     0.4270 ha         1 YIQ       0.174000
     38 HAP          3.4210     1.0160     0.4340 ha         1 YIQ       0.161000
     39 HAM          1.5210    -3.3330    -1.1310 ha         1 YIQ       0.134000
     40 HAL          3.9290    -3.0560    -0.8360 ha         1 YIQ       0.128000
     41 HAJ1         6.7200    -2.3970    -0.5880 hc         1 YIQ       0.046700
     42 HAJ2         6.8290    -1.9200     1.1030 hc         1 YIQ       0.046700
     43 HAJ3         5.5190    -2.9500     0.5710 hc         1 YIQ       0.046700
     44 HAB1         9.3750     1.0070     0.8170 hn         1 YIQ       0.397300
     45 HAB2         9.4640     2.5890     0.3020 hn         1 YIQ       0.397300
     46 HAA          7.5520     3.5740    -0.3750 hn         1 YIQ       0.376400
     47 HAC          7.7280    -0.3230     0.1310 hn         1 YIQ       0.425800
@<TRIPOS>BOND
     1     1     2 ar  
     2     1     9 ar  
     3     1    29 1   
     4     2     3 1   
     5     2     6 ar  
     6     3     4 1   
     7     3    30 1   
     8     4     5 2   
     9     4    31 1   
    10     5     6 1   
    11     5    32 1   
    12     6     7 ar  
    13     7     8 ar  
    14     7    33 1   
    15     8     9 ar  
    16     8    34 1   
    17     9    10 1   
    18    10    11 1   
    19    10    35 1   
    20    11    12 2   
    21    11    13 1   
    22    13    14 1   
    23    13    15 2   
    24    14    18 1   
    25    14    36 1   
    26    15    16 1   
    27    15    37 1   
    28    16    17 ar  
    29    16    18 ar  
    30    17    21 ar  
    31    17    38 1   
    32    18    19 ar  
    33    19    20 ar  
    34    19    39 1   
    35    20    21 ar  
    36    20    40 1   
    37    21    22 1   
    38    22    23 1   
    39    22    24 2   
    40    23    41 1   
    41    23    42 1   
    42    23    43 1   
    43    24    25 1   
    44    25    26 1   
    45    25    47 1   
    46    26    27 1   
    47    26    28 2   
    48    27    44 1   
    49    27    45 1   
    50    28    46 1   
@<TRIPOS>SUBSTRUCTURE
     1 YIQ         1 TEMP              0 ****  ****    0 ROOT
