@<TRIPOS>MOLECULE
YIR
   49    52     1     0     0
SMALL
No Charge or Current Charge


@<TRIPOS>ATOM
      1 NAA         -5.8790    -2.0740     0.6930 no         1 YIR       0.709200
      2 NAB         -3.6460     0.0330     0.2210 na         1 YIR      -0.191700
      3 NAC         -0.7380     0.4290     0.0070 ns         1 YIR      -0.144000
      4 NAD          5.7950     0.3630    -0.2070 n2         1 YIR      -0.351400
      5 NAE          7.1250     0.2510     0.1550 nu         1 YIR      -0.613500
      6 NAF          9.2440     0.7030     0.3070 nv         1 YIR      -1.075200
      7 NAG          7.7970     2.4630    -0.0370 n2         1 YIR      -0.829100
      8 CAH         -7.3980    -0.0670     0.4270 ca         1 YIR       0.002000
      9 CAI         -7.6110     1.3130     0.2020 ca         1 YIR      -0.169000
     10 CAJ         -6.5220     2.1800    -0.0010 ca         1 YIR       0.011000
     11 CAK         -5.2370     1.6270     0.0290 ca         1 YIR      -0.140800
     12 CAL         -5.0110     0.2940     0.2450 ca         1 YIR       0.019800
     13 CAM         -6.0840    -0.6060     0.4530 ca         1 YIR      -0.215200
     14 CAN         -3.9670     2.2620    -0.1440 cc         1 YIR      -0.143200
     15 CAO         -2.9920     1.2760    -0.0240 cd         1 YIR      -0.148300
     16 CAP         -1.5280     1.5620    -0.1470 c          1 YIR       0.639300
     17 CAQ          0.6700     0.2290    -0.0290 ca         1 YIR      -0.020000
     18 CAR          1.1450    -1.0790     0.1600 ca         1 YIR      -0.169000
     19 CAS          2.5230    -1.3670     0.1380 ca         1 YIR      -0.037300
     20 CAT          3.4630    -0.3290    -0.0710 ca         1 YIR      -0.127900
     21 CAU          2.9810     0.9880    -0.2580 ca         1 YIR      -0.050000
     22 CAV          1.6030     1.2640    -0.2400 ca         1 YIR      -0.130000
     23 CAW          2.9820    -2.8100     0.3480 c6         1 YIR      -0.034100
     24 CAX          4.3280    -3.0920    -0.3420 c6         1 YIR      -0.064400
     25 CAY          5.3980    -2.0800     0.1150 c6         1 YIR      -0.144700
     26 CAZ          4.9430    -0.6180    -0.0710 ce         1 YIR       0.364900
     27 CBA          8.0530     1.2400     0.0790 c2         1 YIR       0.809100
     28 OBB         -6.8820    -2.7800     0.8650 o          1 YIR      -0.416000
     29 OBC         -4.7240    -2.5200     0.7110 o          1 YIR      -0.416000
     30 OBD         -1.0920     2.6880    -0.3610 o          1 YIR      -0.554100
     31 HNAB        -3.2200    -0.8790     0.3560 hn         1 YIR       0.382000
     32 HNAC        -1.2590    -0.4190     0.1760 hn         1 YIR       0.150000
     33 H1AF         9.4660    -0.0240    -0.3640 hn         1 YIR       0.454500
     34 H2AF         9.9850     1.3860     0.4010 hn         1 YIR       0.454500
     35 HAG          8.6820     2.9770    -0.0000 hn         1 YIR       0.377400
     36 HAH         -8.2650    -0.7090     0.5800 ha         1 YIR       0.149000
     37 HAI         -8.6240     1.7070     0.1850 ha         1 YIR       0.130000
     38 HAJ         -6.6730     3.2430    -0.1750 ha         1 YIR       0.129000
     39 HAN         -3.7800     3.3190    -0.3340 ha         1 YIR       0.230000
     40 HAR          0.4350    -1.8870     0.3260 ha         1 YIR       0.108000
     41 HAU          3.6730     1.8120    -0.4180 ha         1 YIR       0.146000
     42 HAV          1.2880     2.2910    -0.3890 ha         1 YIR       0.145000
     43 H1AW         3.0690    -3.0090     1.4250 hc         1 YIR       0.052200
     44 H2AW         2.2260    -3.5090    -0.0350 hc         1 YIR       0.052200
     45 H1AX         4.6580    -4.1170    -0.1230 hc         1 YIR       0.047700
     46 H2AX         4.2020    -3.0280    -1.4320 hc         1 YIR       0.047700
     47 H1AY         5.6530    -2.2500     1.1700 hc         1 YIR       0.047200
     48 H2AY         6.3110    -2.2680    -0.4650 hc         1 YIR       0.047200
     49 HAE          7.5150    -0.5860     0.5800 hn         1 YIR       0.479000
@<TRIPOS>BOND
     1     1    13 1   
     2     1    28 1   
     3     1    29 1   
     4     2    12 1   
     5     2    15 1   
     6     2    31 1   
     7     3    16 1   
     8     3    17 1   
     9     3    32 1   
    10     4     5 1   
    11     4    26 2   
    12     5    27 1   
    13     5    49 1   
    14     6    27 1   
    15     6    33 1   
    16     6    34 1   
    17     7    27 2   
    18     7    35 1   
    19     8     9 ar  
    20     8    13 ar  
    21     8    36 1   
    22     9    10 ar  
    23     9    37 1   
    24    10    11 ar  
    25    10    38 1   
    26    11    12 ar  
    27    11    14 1   
    28    12    13 ar  
    29    14    15 2   
    30    14    39 1   
    31    15    16 1   
    32    16    30 2   
    33    17    18 ar  
    34    17    22 ar  
    35    18    19 ar  
    36    18    40 1   
    37    19    20 ar  
    38    19    23 1   
    39    20    21 ar  
    40    20    26 1   
    41    21    22 ar  
    42    21    41 1   
    43    22    42 1   
    44    23    24 1   
    45    23    43 1   
    46    23    44 1   
    47    24    25 1   
    48    24    45 1   
    49    24    46 1   
    50    25    26 1   
    51    25    47 1   
    52    25    48 1   
@<TRIPOS>SUBSTRUCTURE
     1 YIR         1 TEMP              0 ****  ****    0 ROOT
