@<TRIPOS>MOLECULE
YIR
   49    52     1     0     0
SMALL
bcc


@<TRIPOS>ATOM
      1 NAA         -5.8310    -1.8650    -0.7320 no         1 YIR       0.329200
      2 NAB         -3.5610     0.1270    -0.1850 na         1 YIR      -0.141400
      3 NAC         -0.7220     0.2970     0.1360 ns         1 YIR      -0.470100
      4 NAD          5.6470     0.3380    -0.1760 n2         1 YIR      -0.351400
      5 NAE          6.9720     0.1530    -0.1670 nu         1 YIR      -0.558300
      6 NAF          9.1400     0.8510    -0.2530 nv         1 YIR      -0.964800
      7 NAG          7.3690     2.3930    -0.6040 n2         1 YIR      -0.829100
      8 CAH         -7.2700    -0.0400     0.0110 ca         1 YIR      -0.016000
      9 CAI         -7.4570     1.2600     0.4800 ca         1 YIR      -0.187000
     10 CAJ         -6.3790     2.1000     0.6920 ca         1 YIR      -0.007000
     11 CAK         -5.0900     1.6340     0.4330 ca         1 YIR      -0.140800
     12 CAL         -4.8910     0.3110    -0.0330 ca         1 YIR       0.019800
     13 CAM         -5.9990    -0.5230    -0.2480 ca         1 YIR      -0.215200
     14 CAN         -3.8040     2.2340     0.5290 cc         1 YIR      -0.093200
     15 CAO         -2.8990     1.2890     0.1460 cd         1 YIR      -0.148300
     16 CAP         -1.4320     1.4540     0.1080 c          1 YIR       0.706300
     17 CAQ          0.6680     0.1390     0.1110 ca         1 YIR       0.072600
     18 CAR          1.1740    -1.0700     0.5790 ca         1 YIR      -0.187000
     19 CAS          2.5330    -1.3450     0.5720 ca         1 YIR      -0.037300
     20 CAT          3.4280    -0.3870     0.0780 ca         1 YIR      -0.127900
     21 CAU          2.9100     0.8200    -0.3980 ca         1 YIR      -0.068000
     22 CAV          1.5560     1.0940    -0.3890 ca         1 YIR      -0.148000
     23 CAW          3.0420    -2.6580     1.0940 c6         1 YIR      -0.034100
     24 CAX          4.2760    -3.0930     0.3210 c6         1 YIR      -0.064400
     25 CAY          5.3670    -2.0370     0.4110 c6         1 YIR      -0.144700
     26 CAZ          4.8780    -0.6500     0.0830 ce         1 YIR       0.364900
     27 CBA          7.8200     1.2230    -0.3750 c2         1 YIR       0.809100
     28 OBB         -6.8080    -2.5580    -0.8930 o          1 YIR      -0.226000
     29 OBC         -4.6980    -2.2410    -0.9600 o          1 YIR      -0.226000
     30 OBD         -0.9400     2.5670     0.0710 o          1 YIR      -0.554100
     31 HNAB        -3.1520    -0.6940    -0.6000 hn         1 YIR       0.331700
     32 HNAC        -1.2280    -0.5480     0.3560 hn         1 YIR       0.316500
     33 H1AF         9.3780    -0.0890    -0.5320 hn         1 YIR       0.399300
     34 H2AF         9.8050     1.5220    -0.6030 hn         1 YIR       0.399300
     35 HAG          8.1340     3.0340    -0.7800 hn         1 YIR       0.377400
     36 HAH         -8.1300    -0.6740    -0.1490 ha         1 YIR       0.167000
     37 HAI         -8.4610     1.6070     0.6740 ha         1 YIR       0.148000
     38 HAJ         -6.5340     3.1090     1.0510 ha         1 YIR       0.147000
     39 HAN         -3.5780     3.2330     0.8640 ha         1 YIR       0.180000
     40 HAR          0.4910    -1.8230     0.9600 ha         1 YIR       0.126000
     41 HAU          3.5890     1.5650    -0.7900 ha         1 YIR       0.164000
     42 HAV          1.2080     2.0360    -0.7800 ha         1 YIR       0.163000
     43 H1AW         3.2920    -2.5590     2.1560 hc         1 YIR       0.052200
     44 H2AW         2.2580    -3.4130     1.0300 hc         1 YIR       0.052200
     45 H1AX         4.6540    -4.0410     0.7070 hc         1 YIR       0.047700
     46 H2AX         4.0080    -3.2600    -0.7250 hc         1 YIR       0.047700
     47 H1AY         5.7910    -2.0330     1.4240 hc         1 YIR       0.047200
     48 H2AY         6.1880    -2.3100    -0.2600 hc         1 YIR       0.047200
     49 HAE          7.3650    -0.6840     0.2410 hn         1 YIR       0.423800
@<TRIPOS>BOND
     1     1    13 1   
     2     1    28 1   
     3     1    29 1   
     4     2    12 1   
     5     2    15 1   
     6     2    31 1   
     7     3    16 1   
     8     3    17 1   
     9     3    32 1   
    10     4     5 1   
    11     4    26 2   
    12     5    27 1   
    13     5    49 1   
    14     6    27 1   
    15     6    33 1   
    16     6    34 1   
    17     7    27 2   
    18     7    35 1   
    19     8     9 ar  
    20     8    13 ar  
    21     8    36 1   
    22     9    10 ar  
    23     9    37 1   
    24    10    11 ar  
    25    10    38 1   
    26    11    12 ar  
    27    11    14 1   
    28    12    13 ar  
    29    14    15 2   
    30    14    39 1   
    31    15    16 1   
    32    16    30 2   
    33    17    18 ar  
    34    17    22 ar  
    35    18    19 ar  
    36    18    40 1   
    37    19    20 ar  
    38    19    23 1   
    39    20    21 ar  
    40    20    26 1   
    41    21    22 ar  
    42    21    41 1   
    43    22    42 1   
    44    23    24 1   
    45    23    43 1   
    46    23    44 1   
    47    24    25 1   
    48    24    45 1   
    49    24    46 1   
    50    25    26 1   
    51    25    47 1   
    52    25    48 1   
@<TRIPOS>SUBSTRUCTURE
     1 YIR         1 TEMP              0 ****  ****    0 ROOT
