@<TRIPOS>MOLECULE
YIS
   82    87     1     0     0
SMALL
No Charge or Current Charge


@<TRIPOS>ATOM
      1 C1          -6.4300     4.6030    -1.7560 c3         1 YIS      -0.080433
      2 C2          -7.1950     3.2820    -1.4750 c3         1 YIS      -0.073300
      3 C3          -8.2610     3.5290    -0.3740 c3         1 YIS      -0.080433
      4 C4          -7.9290     2.8550    -2.7790 c3         1 YIS      -0.080433
      5 C5          -6.2110     2.2130    -1.0040 cc         1 YIS       0.283300
      6 C6          -5.4290     2.3670     0.1670 cc         1 YIS      -0.225000
      7 C7          -4.6610     1.2520     0.2890 cd         1 YIS       0.030600
      8 N8          -3.7200     0.9410     1.2620 ns         1 YIS      -0.426100
      9 C9          -3.2040     1.7470     2.2470 c          1 YIS       0.677100
     10 O10         -3.5160     2.9120     2.4280 o          1 YIS      -0.605100
     11 N11         -2.2610     1.1040     3.0020 ns         1 YIS      -0.520900
     12 C12         -1.4170     1.7630     3.9960 c3         1 YIS       0.159300
     13 C13         -0.0590     1.0750     4.1070 ca         1 YIS      -0.102300
     14 C14          0.2390     0.3330     5.2680 ca         1 YIS      -0.096000
     15 C15          1.4800    -0.3070     5.4080 ca         1 YIS      -0.107000
     16 C16          2.4390    -0.2070     4.3890 ca         1 YIS      -0.094000
     17 C17          2.1530     0.5260     3.2270 ca         1 YIS      -0.103000
     18 C18          0.9020     1.1610     3.0670 ca         1 YIS      -0.101000
     19 S19          0.5430     2.1060     1.5700 ss         1 YIS       0.105000
     20 C20          0.9480     0.7300     0.5460 cc         1 YIS      -0.187000
     21 C21          0.0960    -0.4300     0.4190 cc         1 YIS      -0.081000
     22 C22          0.5010    -1.5010    -0.3500 cd         1 YIS      -0.072000
     23 C23          1.7480    -1.3330    -1.0240 cd         1 YIS      -0.102000
     24 N24          2.4050    -2.2090    -1.7630 nc         1 YIS      -0.088000
     25 N25          3.6060    -1.5950    -2.1500 nc         1 YIS      -0.328700
     26 C26          3.6460    -0.3680    -1.6230 cd         1 YIS       0.366400
     27 C27          4.7230     0.6200    -1.8540 ca         1 YIS      -0.098900
     28 C28          4.3730     1.9070    -2.3180 ca         1 YIS      -0.085000
     29 C29          5.3600     2.8690    -2.5820 ca         1 YIS      -0.116000
     30 C30          6.7130     2.5520    -2.3940 ca         1 YIS      -0.082000
     31 C31          7.0770     1.2760    -1.9390 ca         1 YIS      -0.123000
     32 C32          6.0930     0.3030    -1.6620 ca         1 YIS      -0.058000
     33 S33          6.5820    -1.3090    -1.0320 ss         1 YIS      -0.120000
     34 C34          8.0620    -0.9770     0.0260 c3         1 YIS       0.022600
     35 C35          8.4610    -2.2430     0.8070 c3         1 YIS       0.172600
     36 O36          9.6080    -1.9710     1.6230 oh         1 YIS      -0.661000
     37 N37          2.4550    -0.1770    -0.9820 na         1 YIS       0.021200
     38 C38          2.1620     0.8840    -0.1170 cd         1 YIS      -0.040000
     39 N39         -5.0510     0.4830    -0.8080 na         1 YIS       0.180000
     40 N40         -5.9790     1.0730    -1.6410 nd         1 YIS      -0.513800
     41 C41         -4.3160    -0.6720    -1.0670 ca         1 YIS      -0.012200
     42 C42         -4.6060    -1.8690    -0.3840 ca         1 YIS      -0.049000
     43 C43         -3.8530    -3.0300    -0.6400 ca         1 YIS      -0.193000
     44 C44         -2.8110    -3.0010    -1.5840 ca         1 YIS       0.151100
     45 O45         -2.0900    -4.1390    -1.8230 oh         1 YIS      -0.510100
     46 C46         -2.5200    -1.8020    -2.2710 ca         1 YIS       0.080000
     47 Cl          -1.2220    -1.7260    -3.4650 cl         1 YIS      -0.180000
     48 C48         -3.2710    -0.6430    -2.0100 ca         1 YIS      -0.089000
     49 H11C        -5.9410     4.9820    -0.8500 hc         1 YIS       0.036811
     50 H12C        -5.6550     4.4480    -2.5180 hc         1 YIS       0.036811
     51 H13C        -7.1110     5.3830    -2.1190 hc         1 YIS       0.036811
     52 H31C        -8.9960     4.2770    -0.6990 hc         1 YIS       0.036811
     53 H32C        -8.8000     2.6030    -0.1410 hc         1 YIS       0.036811
     54 H33C        -7.8010     3.8940     0.5520 hc         1 YIS       0.036811
     55 H41C        -7.2170     2.6870    -3.5960 hc         1 YIS       0.036811
     56 H42C        -8.4970     1.9290    -2.6260 hc         1 YIS       0.036811
     57 H43C        -8.6350     3.6290    -3.1050 hc         1 YIS       0.036811
     58 H6          -5.4540     3.2290     0.8220 ha         1 YIS       0.167000
     59 H8          -3.3110     0.0180     1.2370 hn         1 YIS       0.323500
     60 H11         -2.0820     0.1290     2.8080 hn         1 YIS       0.311500
     61 H121        -1.2710     2.8170     3.7220 h1         1 YIS       0.070200
     62 H122        -1.9340     1.7420     4.9650 h1         1 YIS       0.070200
     63 H14         -0.4940     0.2530     6.0680 ha         1 YIS       0.114000
     64 H15          1.7010    -0.8760     6.3090 ha         1 YIS       0.119000
     65 H16          3.4050    -0.6960     4.5010 ha         1 YIS       0.119000
     66 H17          2.9140     0.6030     2.4550 ha         1 YIS       0.125000
     67 H21         -0.8360    -0.4700     0.9710 ha         1 YIS       0.133000
     68 H38          2.8460     1.7220    -0.0380 h4         1 YIS       0.167000
     69 H22         -0.0790    -2.4160    -0.4190 ha         1 YIS       0.153000
     70 H28          3.3290     2.1610    -2.4900 ha         1 YIS       0.121000
     71 H29          5.0770     3.8560    -2.9400 ha         1 YIS       0.122000
     72 H30          7.4800     3.2940    -2.6060 ha         1 YIS       0.118000
     73 H31          8.1310     1.0500    -1.8110 ha         1 YIS       0.122000
     74 H341         8.8990    -0.6630    -0.6080 h1         1 YIS       0.075200
     75 H342         7.8220    -0.1700     0.7290 h1         1 YIS       0.075200
     76 H351         7.6150    -2.5620     1.4310 h1         1 YIS       0.032200
     77 H352         8.6800    -3.0500     0.0960 h1         1 YIS       0.032200
     78 H36          9.8250    -2.8040     2.0990 ho         1 YIS       0.447000
     79 H42         -5.4150    -1.8970     0.3440 ha         1 YIS       0.143000
     80 H48         -3.0420     0.2780    -2.5410 ha         1 YIS       0.144000
     81 H43         -4.0880    -3.9460    -0.1040 ha         1 YIS       0.124000
     82 H45         -2.4610    -4.8650    -1.2770 ho         1 YIS       0.473000
@<TRIPOS>BOND
     1     1     2 1   
     2     1    49 1   
     3     1    50 1   
     4     1    51 1   
     5     2     3 1   
     6     2     4 1   
     7     2     5 1   
     8     3    52 1   
     9     3    53 1   
    10     3    54 1   
    11     4    55 1   
    12     4    56 1   
    13     4    57 1   
    14     5     6 1   
    15     5    40 2   
    16     6     7 2   
    17     6    58 1   
    18     7     8 1   
    19     7    39 1   
    20     8     9 1   
    21     8    59 1   
    22     9    10 2   
    23     9    11 1   
    24    11    12 1   
    25    11    60 1   
    26    12    13 1   
    27    12    61 1   
    28    12    62 1   
    29    13    14 ar  
    30    13    18 ar  
    31    14    15 ar  
    32    14    63 1   
    33    15    16 ar  
    34    15    64 1   
    35    16    17 ar  
    36    16    65 1   
    37    17    18 ar  
    38    17    66 1   
    39    18    19 1   
    40    19    20 1   
    41    20    21 1   
    42    20    38 2   
    43    21    22 2   
    44    21    67 1   
    45    22    23 1   
    46    22    69 1   
    47    23    24 2   
    48    23    37 1   
    49    24    25 1   
    50    25    26 2   
    51    26    27 1   
    52    26    37 1   
    53    27    28 ar  
    54    27    32 ar  
    55    28    29 ar  
    56    28    70 1   
    57    29    30 ar  
    58    29    71 1   
    59    30    31 ar  
    60    30    72 1   
    61    31    32 ar  
    62    31    73 1   
    63    32    33 1   
    64    33    34 1   
    65    34    35 1   
    66    34    74 1   
    67    34    75 1   
    68    35    36 1   
    69    35    76 1   
    70    35    77 1   
    71    36    78 1   
    72    37    38 1   
    73    38    68 1   
    74    39    40 1   
    75    39    41 1   
    76    41    42 ar  
    77    41    48 ar  
    78    42    43 ar  
    79    42    79 1   
    80    43    44 ar  
    81    43    81 1   
    82    44    45 1   
    83    44    46 ar  
    84    45    82 1   
    85    46    47 1   
    86    46    48 ar  
    87    48    80 1   
@<TRIPOS>SUBSTRUCTURE
     1 YIS         1 TEMP              0 ****  ****    0 ROOT
