@<TRIPOS>MOLECULE
YIS
   82    87     1     0     0
SMALL
bcc


@<TRIPOS>ATOM
      1 C1          -4.4070     4.6130    -2.1960 c3         1 YIS      -0.080433
      2 C2          -5.4680     3.5110    -2.1080 c3         1 YIS      -0.073300
      3 C3          -6.7640     4.1040    -1.5360 c3         1 YIS      -0.080433
      4 C4          -5.7440     2.9620    -3.5070 c3         1 YIS      -0.080433
      5 C5          -4.9890     2.4270    -1.1790 cc         1 YIS       0.348600
      6 C6          -4.4680     2.6040     0.1220 cc         1 YIS      -0.308300
      7 C7          -4.2190     1.3310     0.5740 cd         1 YIS       0.081300
      8 N8          -3.7520     0.8390     1.7740 ns         1 YIS      -0.493100
      9 C9          -2.9140     1.5420     2.6140 c          1 YIS       0.811100
     10 O10         -2.5730     2.6880     2.3840 o          1 YIS      -0.605100
     11 N11         -2.5210     0.8340     3.6970 ns         1 YIS      -0.587900
     12 C12         -1.5340     1.3100     4.6360 c3         1 YIS       0.159300
     13 C13         -0.3480     0.3790     4.7400 ca         1 YIS      -0.102300
     14 C14         -0.1380    -0.3150     5.9280 ca         1 YIS      -0.114000
     15 C15          0.9240    -1.1940     6.0790 ca         1 YIS      -0.125000
     16 C16          1.8090    -1.3810     5.0280 ca         1 YIS      -0.112000
     17 C17          1.6300    -0.6880     3.8400 ca         1 YIS      -0.121000
     18 C18          0.5520     0.1770     3.6870 ca         1 YIS       0.025900
     19 S19          0.3230     1.1020     2.1890 ss         1 YIS      -0.148800
     20 C20          1.0150     0.0300     0.9780 cc         1 YIS      -0.060100
     21 C21          0.5030    -1.2920     0.7880 cc         1 YIS      -0.099000
     22 C22          0.9700    -2.0770    -0.2140 cd         1 YIS      -0.090000
     23 C23          1.9590    -1.5520    -1.0790 cd         1 YIS      -0.051300
     24 N24          2.5860    -2.0790    -2.1070 nc         1 YIS      -0.088000
     25 N25          3.4270    -1.1490    -2.5820 nc         1 YIS      -0.328700
     26 C26          3.3290    -0.0600    -1.8660 cd         1 YIS       0.366400
     27 C27          4.0600     1.1900    -2.0720 ca         1 YIS      -0.098900
     28 C28          3.3500     2.3770    -2.2380 ca         1 YIS      -0.103000
     29 C29          4.0090     3.5780    -2.4460 ca         1 YIS      -0.134000
     30 C30          5.3940     3.5870    -2.5070 ca         1 YIS      -0.100000
     31 C31          6.1150     2.4120    -2.3580 ca         1 YIS      -0.141000
     32 C32          5.4630     1.2030    -2.1250 ca         1 YIS       0.068900
     33 S33          6.3320    -0.3130    -1.8960 ss         1 YIS      -0.199000
     34 C34          7.9840     0.2460    -1.3890 c3         1 YIS      -0.025300
     35 C35          8.6990    -0.9470    -0.7770 c3         1 YIS       0.149400
     36 O36         10.0040    -0.5320    -0.4490 oh         1 YIS      -0.598800
     37 N37          2.4000    -0.2650    -0.8840 na         1 YIS      -0.080200
     38 C38          1.9670     0.5220     0.1480 cd         1 YIS      -0.007300
     39 N39         -4.5640     0.4860    -0.4350 na         1 YIS       0.129300
     40 N40         -5.0540     1.1540    -1.4970 nd         1 YIS      -0.513800
     41 C41         -4.5670    -0.9220    -0.4340 ca         1 YIS      -0.012200
     42 C42         -5.6930    -1.6090    -0.8730 ca         1 YIS      -0.067000
     43 C43         -5.7080    -2.9910    -0.8730 ca         1 YIS      -0.211000
     44 C44         -4.6150    -3.7190    -0.4100 ca         1 YIS       0.151100
     45 O45         -4.5830    -5.0550    -0.3620 oh         1 YIS      -0.471100
     46 C46         -3.4930    -3.0150     0.0260 ca         1 YIS      -0.011600
     47 CL          -2.1330    -3.9070     0.6110 cl         1 YIS      -0.088400
     48 C48         -3.4520    -1.6320    -0.0050 ca         1 YIS      -0.107000
     49 H11C        -4.1920     5.0480    -1.2180 hc         1 YIS       0.036811
     50 H12C        -3.4700     4.2320    -2.6050 hc         1 YIS       0.036811
     51 H13C        -4.7530     5.4200    -2.8450 hc         1 YIS       0.036811
     52 H31C        -7.1240     4.9140    -2.1730 hc         1 YIS       0.036811
     53 H32C        -7.5490     3.3480    -1.4760 hc         1 YIS       0.036811
     54 H33C        -6.6130     4.5090    -0.5340 hc         1 YIS       0.036811
     55 H41C        -4.8440     2.5450    -3.9620 hc         1 YIS       0.036811
     56 H42C        -6.5040     2.1800    -3.4940 hc         1 YIS       0.036811
     57 H43C        -6.1020     3.7670    -4.1520 hc         1 YIS       0.036811
     58 H6          -4.3160     3.5260     0.6540 ha         1 YIS       0.185000
     59 H8          -4.0520    -0.0880     2.0400 hn         1 YIS       0.323500
     60 H11         -2.8550    -0.1070     3.8310 hn         1 YIS       0.311500
     61 H121        -1.2260     2.3100     4.3310 h1         1 YIS       0.070200
     62 H122        -1.9820     1.4150     5.6270 h1         1 YIS       0.070200
     63 H14         -0.8310    -0.1650     6.7480 ha         1 YIS       0.132000
     64 H15          1.0590    -1.7270     7.0110 ha         1 YIS       0.137000
     65 H16          2.6480    -2.0560     5.1300 ha         1 YIS       0.137000
     66 H17          2.3410    -0.8240     3.0350 ha         1 YIS       0.143000
     67 H21         -0.2570    -1.6670     1.4610 ha         1 YIS       0.151000
     68 H38          2.4070     1.5040     0.2460 h4         1 YIS       0.185000
     69 H22          0.6060    -3.0800    -0.3790 ha         1 YIS       0.171000
     70 H28          2.2680     2.3600    -2.2160 ha         1 YIS       0.139000
     71 H29          3.4440     4.4910    -2.5710 ha         1 YIS       0.140000
     72 H30          5.9260     4.5140    -2.6830 ha         1 YIS       0.136000
     73 H31          7.1930     2.4510    -2.4260 ha         1 YIS       0.140000
     74 H341         8.5400     0.6160    -2.2510 h1         1 YIS       0.075200
     75 H342         7.8860     1.0490    -0.6570 h1         1 YIS       0.075200
     76 H351         8.1440    -1.2860     0.1050 h1         1 YIS       0.032200
     77 H352         8.7080    -1.7790    -1.4930 h1         1 YIS       0.032200
     78 H36         10.4770    -1.2890    -0.0910 ho         1 YIS       0.408000
     79 H42         -6.5600    -1.0630    -1.2180 ha         1 YIS       0.161000
     80 H48         -2.5500    -1.1160     0.2950 ha         1 YIS       0.162000
     81 H43         -6.5900    -3.5140    -1.2220 ha         1 YIS       0.142000
     82 H45         -5.4120    -5.4250    -0.6900 ho         1 YIS       0.434000
@<TRIPOS>BOND
     1     1     2 1   
     2     1    49 1   
     3     1    50 1   
     4     1    51 1   
     5     2     3 1   
     6     2     4 1   
     7     2     5 1   
     8     3    52 1   
     9     3    53 1   
    10     3    54 1   
    11     4    55 1   
    12     4    56 1   
    13     4    57 1   
    14     5     6 1   
    15     5    40 2   
    16     6     7 2   
    17     6    58 1   
    18     7     8 1   
    19     7    39 1   
    20     8     9 1   
    21     8    59 1   
    22     9    10 2   
    23     9    11 1   
    24    11    12 1   
    25    11    60 1   
    26    12    13 1   
    27    12    61 1   
    28    12    62 1   
    29    13    14 ar  
    30    13    18 ar  
    31    14    15 ar  
    32    14    63 1   
    33    15    16 ar  
    34    15    64 1   
    35    16    17 ar  
    36    16    65 1   
    37    17    18 ar  
    38    17    66 1   
    39    18    19 1   
    40    19    20 1   
    41    20    21 1   
    42    20    38 2   
    43    21    22 2   
    44    21    67 1   
    45    22    23 1   
    46    22    69 1   
    47    23    24 2   
    48    23    37 1   
    49    24    25 1   
    50    25    26 2   
    51    26    27 1   
    52    26    37 1   
    53    27    28 ar  
    54    27    32 ar  
    55    28    29 ar  
    56    28    70 1   
    57    29    30 ar  
    58    29    71 1   
    59    30    31 ar  
    60    30    72 1   
    61    31    32 ar  
    62    31    73 1   
    63    32    33 1   
    64    33    34 1   
    65    34    35 1   
    66    34    74 1   
    67    34    75 1   
    68    35    36 1   
    69    35    76 1   
    70    35    77 1   
    71    36    78 1   
    72    37    38 1   
    73    38    68 1   
    74    39    40 1   
    75    39    41 1   
    76    41    42 ar  
    77    41    48 ar  
    78    42    43 ar  
    79    42    79 1   
    80    43    44 ar  
    81    43    81 1   
    82    44    45 1   
    83    44    46 ar  
    84    45    82 1   
    85    46    47 1   
    86    46    48 ar  
    87    48    80 1   
@<TRIPOS>SUBSTRUCTURE
     1 YIS         1 TEMP              0 ****  ****    0 ROOT
