@<TRIPOS>MOLECULE
YIT
   53    55     1     0     0
SMALL
No Charge or Current Charge


@<TRIPOS>ATOM
      1 NAA         -3.7350    -0.7600    -0.1220 na         1 YIT      -0.220700
      2 CAI         -5.1200    -0.7650    -0.0710 ca         1 YIT      -0.062200
      3 CAH         -5.9770    -1.8720    -0.1180 ca         1 YIT      -0.099000
      4 CAG         -7.3690    -1.6440    -0.0490 ca         1 YIT      -0.152000
      5 CAL         -7.8770    -0.3190     0.0640 ca         1 YIT       0.106100
      6 OBB         -9.2280    -0.0460     0.1330 os         1 YIT      -0.346100
      7 CAO        -10.2240    -1.0850     0.0970 c3         1 YIT       0.151900
      8 CAK         -6.9830     0.7720     0.1080 ca         1 YIT      -0.093000
      9 CAJ         -5.6100     0.5040     0.0380 ca         1 YIT      -0.082800
     10 CAN         -4.4890     1.3920     0.0590 cc         1 YIT      -0.156200
     11 CAM         -3.3390     0.6090    -0.0400 cd         1 YIT      -0.150300
     12 CAP         -1.9600     1.1900    -0.0490 c          1 YIT       0.638300
     13 OBC         -1.7500     2.3970     0.0280 o          1 YIT      -0.561100
     14 NAB         -0.9670     0.2240    -0.1600 ns         1 YIT      -0.152000
     15 CAQ          0.4530     0.3080    -0.1920 ca         1 YIT      -0.021000
     16 CAV          1.1710    -0.8800    -0.4130 ca         1 YIT      -0.149500
     17 CAU          2.5760    -0.8760    -0.4560 ca         1 YIT      -0.065000
     18 CAR          1.1720     1.5050     0.0000 ca         1 YIT      -0.149500
     19 CAS          2.5770     1.5120    -0.0430 ca         1 YIT      -0.065000
     20 CAT          3.3030     0.3250    -0.2920 ca         1 YIT      -0.129900
     21 CAW          4.8110     0.3170    -0.2990 ce         1 YIT       0.360900
     22 CAX          5.5430     1.5940    -0.7310 c3         1 YIT      -0.148700
     23 CAZ          6.0790     2.4340     0.4540 c3         1 YIT      -0.078400
     24 CBA          6.7740     3.7330     0.0050 c3         1 YIT      -0.091100
     25 NAC          5.4270    -0.8050    -0.0320 n2         1 YIT      -0.349400
     26 NAD          6.8050    -0.9130     0.0120 nu         1 YIT      -0.614500
     27 CAY          7.5050    -2.0320     0.3250 c2         1 YIT       0.816100
     28 NAF          7.0350    -3.0430     0.9040 n2         1 YIT      -0.834100
     29 NAE          8.7840    -1.7950     0.0690 nv         1 YIT      -1.078200
     30 HAA         -3.1340    -1.5750    -0.2010 hn         1 YIT       0.349000
     31 HAH         -5.5820    -2.8820    -0.2040 ha         1 YIT       0.115000
     32 HAG         -8.0360    -2.5000    -0.0860 ha         1 YIT       0.116000
     33 HAK         -7.3520     1.7900     0.1940 ha         1 YIT       0.134000
     34 HAF          7.8040    -3.6970     1.0720 hn         1 YIT       0.376400
     35 HAO1       -11.2290    -0.6510     0.1650 h1         1 YIT       0.038033
     36 HAO2       -10.1610    -1.6520    -0.8410 h1         1 YIT       0.038033
     37 HAO3       -10.0950    -1.7780     0.9380 h1         1 YIT       0.038033
     38 HAN         -4.5130     2.4770     0.1370 ha         1 YIT       0.223000
     39 HAB         -1.3170    -0.7210    -0.2290 hn         1 YIT       0.150000
     40 HAV          0.6400    -1.8190    -0.5540 ha         1 YIT       0.125500
     41 HAR          0.6640     2.4440     0.1950 ha         1 YIT       0.125500
     42 HAU          3.0950    -1.8170    -0.6300 ha         1 YIT       0.128000
     43 HAS          3.0930     2.4530     0.1280 ha         1 YIT       0.128000
     44 HAX1         6.3700     1.3510    -1.4090 hc         1 YIT       0.048700
     45 HAX2         4.8740     2.2230    -1.3290 hc         1 YIT       0.048700
     46 HAZ1         5.2520     2.6870     1.1290 hc         1 YIT       0.048200
     47 HAZ2         6.7880     1.8360     1.0390 hc         1 YIT       0.048200
     48 HBA1         6.0770     4.3750    -0.5480 hc         1 YIT       0.034033
     49 HBA2         7.1380     4.2930     0.8750 hc         1 YIT       0.034033
     50 HBA3         7.6300     3.5120    -0.6430 hc         1 YIT       0.034033
     51 HAD          7.4280    -0.1240    -0.1320 hn         1 YIT       0.484000
     52 HAE1         8.9400    -1.6070    -0.9140 hn         1 YIT       0.456500
     53 HAE2         9.4060    -2.5050     0.4320 hn         1 YIT       0.456500
@<TRIPOS>BOND
     1     1     2 1   
     2     1    11 1   
     3     1    30 1   
     4     2     3 ar  
     5     2     9 ar  
     6     3     4 ar  
     7     3    31 1   
     8     4     5 ar  
     9     4    32 1   
    10     5     6 1   
    11     5     8 ar  
    12     6     7 1   
    13     7    35 1   
    14     7    36 1   
    15     7    37 1   
    16     8     9 ar  
    17     8    33 1   
    18     9    10 1   
    19    10    11 2   
    20    10    38 1   
    21    11    12 1   
    22    12    13 2   
    23    12    14 1   
    24    14    15 1   
    25    14    39 1   
    26    15    16 ar  
    27    15    18 ar  
    28    16    17 ar  
    29    16    40 1   
    30    17    20 ar  
    31    17    42 1   
    32    18    19 ar  
    33    18    41 1   
    34    19    20 ar  
    35    19    43 1   
    36    20    21 1   
    37    21    22 1   
    38    21    25 2   
    39    22    23 1   
    40    22    44 1   
    41    22    45 1   
    42    23    24 1   
    43    23    46 1   
    44    23    47 1   
    45    24    48 1   
    46    24    49 1   
    47    24    50 1   
    48    25    26 1   
    49    26    27 1   
    50    26    51 1   
    51    27    28 2   
    52    27    29 1   
    53    28    34 1   
    54    29    52 1   
    55    29    53 1   
@<TRIPOS>SUBSTRUCTURE
     1 YIT         1 TEMP              0 ****  ****    0 ROOT
