@<TRIPOS>MOLECULE
YIT
   53    55     1     0     0
SMALL
bcc


@<TRIPOS>ATOM
      1 NAA         -3.6760    -0.5470    -0.4890 na         1 YIT      -0.170400
      2 CAI         -5.0340    -0.6270    -0.3620 ca         1 YIT      -0.062200
      3 CAH         -5.9380    -1.5520    -0.8740 ca         1 YIT      -0.117000
      4 CAG         -7.2760    -1.3870    -0.5730 ca         1 YIT      -0.170000
      5 CAL         -7.7200    -0.3140     0.2290 ca         1 YIT       0.106100
      6 OBB         -9.0210    -0.1180     0.5490 os         1 YIT      -0.322900
      7 CAO         -9.9870    -1.0320     0.0760 c3         1 YIT       0.128700
      8 CAK         -6.8190     0.6080     0.7320 ca         1 YIT      -0.111000
      9 CAJ         -5.4610     0.4590     0.4310 ca         1 YIT      -0.082800
     10 CAN         -4.2970     1.2120     0.7530 cc         1 YIT      -0.106200
     11 CAM         -3.2350     0.5720     0.1710 cd         1 YIT      -0.150300
     12 CAP         -1.8250     0.9930     0.2420 c          1 YIT       0.705300
     13 OBC         -1.5300     2.1410     0.5250 o          1 YIT      -0.561100
     14 NAB         -0.9170     0.0140    -0.0220 ns         1 YIT      -0.478100
     15 CAQ          0.4740     0.1450    -0.0890 ca         1 YIT       0.071600
     16 CAV          1.2450    -1.0000     0.1290 ca         1 YIT      -0.167500
     17 CAU          2.6200    -0.9570     0.0370 ca         1 YIT      -0.083000
     18 CAR          1.1230     1.3350    -0.4060 ca         1 YIT      -0.167500
     19 CAS          2.5070     1.3640    -0.4970 ca         1 YIT      -0.083000
     20 CAT          3.2900     0.2310    -0.2810 ca         1 YIT      -0.129900
     21 CAW          4.7640     0.2750    -0.3710 ce         1 YIT       0.360900
     22 CAX          5.4430     1.5190    -0.8790 c3         1 YIT      -0.148700
     23 CAZ          5.8400     2.4790     0.2490 c3         1 YIT      -0.078400
     24 CBA          6.5290     3.7270    -0.2810 c3         1 YIT      -0.091100
     25 NAC          5.3830    -0.7710     0.0320 n2         1 YIT      -0.349400
     26 NAD          6.7140    -0.8180    -0.0060 nu         1 YIT      -0.559300
     27 CAY          7.3920    -1.9080     0.5030 c2         1 YIT       0.816100
     28 NAF          6.7720    -2.8700     1.0650 n2         1 YIT      -0.834100
     29 NAE          8.7530    -1.7600     0.3690 nv         1 YIT      -0.967800
     30 HAA         -3.1330    -1.1020    -1.1310 hn         1 YIT       0.298700
     31 HAH         -5.6140    -2.3820    -1.4870 ha         1 YIT       0.133000
     32 HAG         -7.9790    -2.1070    -0.9700 ha         1 YIT       0.134000
     33 HAK         -7.1670     1.4330     1.3410 ha         1 YIT       0.152000
     34 HAF          7.4260    -3.5960     1.3320 hn         1 YIT       0.376400
     35 HAO1       -10.9460    -0.6940     0.4600 h1         1 YIT       0.038033
     36 HAO2       -10.0370    -1.0520    -1.0160 h1         1 YIT       0.038033
     37 HAO3        -9.8060    -2.0490     0.4370 h1         1 YIT       0.038033
     38 HAN         -4.2420     2.1010     1.3610 ha         1 YIT       0.173000
     39 HAB         -1.2530    -0.9380    -0.0220 hn         1 YIT       0.316500
     40 HAV          0.7580    -1.9370     0.3740 ha         1 YIT       0.143500
     41 HAR          0.5700     2.2400    -0.5970 ha         1 YIT       0.143500
     42 HAU          3.1890    -1.8590     0.2150 ha         1 YIT       0.146000
     43 HAS          2.9630     2.3110    -0.7500 ha         1 YIT       0.146000
     44 HAX1         6.3290     1.2570    -1.4670 hc         1 YIT       0.048700
     45 HAX2         4.7930     2.0370    -1.5850 hc         1 YIT       0.048700
     46 HAZ1         4.9480     2.7610     0.8150 hc         1 YIT       0.048200
     47 HAZ2         6.4980     1.9690     0.9590 hc         1 YIT       0.048200
     48 HBA1         5.8770     4.2790    -0.9600 hc         1 YIT       0.034033
     49 HBA2         6.8070     4.3990     0.5320 hc         1 YIT       0.034033
     50 HBA3         7.4390     3.4740    -0.8270 hc         1 YIT       0.034033
     51 HAD          7.2530    -0.0050    -0.2720 hn         1 YIT       0.428800
     52 HAE1         9.0850    -1.2710    -0.4490 hn         1 YIT       0.401300
     53 HAE2         9.2950    -2.5870     0.5580 hn         1 YIT       0.401300
@<TRIPOS>BOND
     1     1     2 1   
     2     1    11 1   
     3     1    30 1   
     4     2     3 ar  
     5     2     9 ar  
     6     3     4 ar  
     7     3    31 1   
     8     4     5 ar  
     9     4    32 1   
    10     5     6 1   
    11     5     8 ar  
    12     6     7 1   
    13     7    35 1   
    14     7    36 1   
    15     7    37 1   
    16     8     9 ar  
    17     8    33 1   
    18     9    10 1   
    19    10    11 2   
    20    10    38 1   
    21    11    12 1   
    22    12    13 2   
    23    12    14 1   
    24    14    15 1   
    25    14    39 1   
    26    15    16 ar  
    27    15    18 ar  
    28    16    17 ar  
    29    16    40 1   
    30    17    20 ar  
    31    17    42 1   
    32    18    19 ar  
    33    18    41 1   
    34    19    20 ar  
    35    19    43 1   
    36    20    21 1   
    37    21    22 1   
    38    21    25 2   
    39    22    23 1   
    40    22    44 1   
    41    22    45 1   
    42    23    24 1   
    43    23    46 1   
    44    23    47 1   
    45    24    48 1   
    46    24    49 1   
    47    24    50 1   
    48    25    26 1   
    49    26    27 1   
    50    26    51 1   
    51    27    28 2   
    52    27    29 1   
    53    28    34 1   
    54    29    52 1   
    55    29    53 1   
@<TRIPOS>SUBSTRUCTURE
     1 YIT         1 TEMP              0 ****  ****    0 ROOT
