@<TRIPOS>MOLECULE
YIV
   18    17     1     0     0
SMALL
No Charge or Current Charge


@<TRIPOS>ATOM
      1 C           -2.6830     0.3640    -0.0080 c          1 YIV       0.595900
      2 N           -1.3480     0.6990     0.0010 ns         1 YIV      -0.517900
      3 C1          -0.2520    -0.2700     0.0050 c3         1 YIV       0.098000
      4 O1          -3.0740    -0.7970    -0.0130 o          1 YIV      -0.606100
      5 C2           1.1230     0.4260     0.0160 c3         1 YIV      -0.095400
      6 C3           2.3010    -0.5720     0.0200 c3         1 YIV      -0.073400
      7 C4           3.6780     0.1200     0.0310 c3         1 YIV      -0.090100
      8 H1          -0.3470    -0.9100     0.8930 h1         1 YIV       0.051700
      9 H1A         -0.3360    -0.9050    -0.8880 h1         1 YIV       0.051700
     10 H2           1.2030     1.0760    -0.8650 hc         1 YIV       0.041700
     11 H2A          1.1920     1.0700     0.9010 hc         1 YIV       0.041700
     12 H3           2.2230    -1.2240     0.9000 hc         1 YIV       0.042200
     13 H3A          2.2340    -1.2190    -0.8640 hc         1 YIV       0.042200
     14 H4           3.8010     0.7530    -0.8560 hc         1 YIV       0.033367
     15 H4A          3.7900     0.7470     0.9230 hc         1 YIV       0.033367
     16 H4B          4.4810    -0.6270     0.0340 hc         1 YIV       0.033367
     17 H           -3.3490     1.2470    -0.0090 h5         1 YIV       0.004200
     18 HN          -1.1260     1.6880     0.0050 hn         1 YIV       0.311500
@<TRIPOS>BOND
     1     1     2 1   
     2     1     4 2   
     3     1    17 1   
     4     2     3 1   
     5     2    18 1   
     6     3     5 1   
     7     3     8 1   
     8     3     9 1   
     9     5     6 1   
    10     5    10 1   
    11     5    11 1   
    12     6     7 1   
    13     6    12 1   
    14     6    13 1   
    15     7    14 1   
    16     7    15 1   
    17     7    16 1   
@<TRIPOS>SUBSTRUCTURE
     1 YIV         1 TEMP              0 ****  ****    0 ROOT
