@<TRIPOS>MOLECULE
YIV
   18    17     1     0     0
SMALL
abcg2


@<TRIPOS>ATOM
      1 C           -2.6030     0.3710     0.0670 c          1 YIV       0.595900
      2 N           -1.3140     0.6890    -0.0550 ns         1 YIV      -0.517900
      3 C1          -0.2380    -0.2830    -0.0480 c3         1 YIV       0.098000
      4 O1          -3.0400    -0.7610     0.2080 o          1 YIV      -0.606100
      5 C2           1.1110     0.4150     0.0090 c3         1 YIV      -0.095400
      6 C3           2.2720    -0.5710     0.0050 c3         1 YIV      -0.073400
      7 C4           3.6230     0.1280     0.0650 c3         1 YIV      -0.090100
      8 H1          -0.3510    -0.9450     0.8140 h1         1 YIV       0.051700
      9 H1A         -0.2940    -0.9140    -0.9410 h1         1 YIV       0.051700
     10 H2           1.2090     1.0930    -0.8450 hc         1 YIV       0.041700
     11 H2A          1.1620     1.0360     0.9080 hc         1 YIV       0.041700
     12 H3           2.1730    -1.2530     0.8550 hc         1 YIV       0.042200
     13 H3A          2.2190    -1.1930    -0.8930 hc         1 YIV       0.042200
     14 H4           3.7600     0.7950    -0.7890 hc         1 YIV       0.033367
     15 H4A          3.7130     0.7310     0.9710 hc         1 YIV       0.033367
     16 H4B          4.4450    -0.5880     0.0610 hc         1 YIV       0.033367
     17 H           -3.2550     1.2570     0.0300 h5         1 YIV       0.004200
     18 HN          -1.0830     1.6590    -0.1960 hn         1 YIV       0.311500
@<TRIPOS>BOND
     1     1     2 1   
     2     1     4 2   
     3     1    17 1   
     4     2     3 1   
     5     2    18 1   
     6     3     5 1   
     7     3     8 1   
     8     3     9 1   
     9     5     6 1   
    10     5    10 1   
    11     5    11 1   
    12     6     7 1   
    13     6    12 1   
    14     6    13 1   
    15     7    14 1   
    16     7    15 1   
    17     7    16 1   
@<TRIPOS>SUBSTRUCTURE
     1 YIV         1 TEMP              0 ****  ****    0 ROOT
