@<TRIPOS>MOLECULE
YIW
   72    76     1     0     0
SMALL
abcg2


@<TRIPOS>ATOM
      1 C1           2.3030    -3.9510    -0.9690 c3         1 YIW      -0.087100
      2 C2           3.5260    -3.6930    -0.0800 c3         1 YIW      -0.063000
      3 C3           4.3620    -4.9560     0.0840 c3         1 YIW      -0.087100
      4 C4           4.3480    -2.5740    -0.6250 cc         1 YIW       0.327800
      5 N5           5.4850    -2.6530    -1.2560 nd         1 YIW      -0.350700
      6 N6           5.8930    -1.4200    -1.6240 nd         1 YIW      -0.090000
      7 C7           4.9860    -0.5710    -1.2080 cc         1 YIW      -0.098000
      8 C8           4.8860     0.8380    -1.3180 cc         1 YIW      -0.080000
      9 C9           3.8020     1.4590    -0.7900 cd         1 YIW      -0.067000
     10 C10          2.7900     0.7060    -0.1120 cd         1 YIW      -0.188000
     11 S11          1.3140     1.4670     0.4730 ss         1 YIW       0.092000
     12 C12          1.9180     2.5430     1.7490 ca         1 YIW      -0.099000
     13 C13          3.0980     2.2770     2.4340 ca         1 YIW      -0.107000
     14 C14          3.5370     3.1410     3.4270 ca         1 YIW      -0.094000
     15 C15          2.7910     4.2630     3.7530 ca         1 YIW      -0.107000
     16 C16          1.6030     4.5130     3.0800 ca         1 YIW      -0.094000
     17 C17          1.1530     3.6720     2.0690 ca         1 YIW      -0.097300
     18 C18         -0.1310     3.9840     1.3470 c3         1 YIW       0.157300
     19 N19         -1.0860     2.9100     1.4920 ns         1 YIW      -0.528900
     20 C20         -1.8070     2.4140     0.4570 c          1 YIW       0.667100
     21 O21         -1.7460     2.8340    -0.6840 o          1 YIW      -0.599100
     22 N22         -2.6170     1.3580     0.8130 ns         1 YIW      -0.429100
     23 C23         -3.4120     0.6910    -0.1000 cc         1 YIW       0.015600
     24 C24         -4.3360     1.1550    -1.0000 cd         1 YIW      -0.206000
     25 C25         -4.8690    -0.0040    -1.6020 cd         1 YIW       0.277300
     26 N26         -4.3180    -1.0890    -1.1010 nc         1 YIW      -0.509800
     27 N27         -3.4130    -0.6660    -0.2040 na         1 YIW       0.189000
     28 C28         -2.6690    -1.6120     0.5320 ca         1 YIW       0.018800
     29 C29         -3.2980    -2.7680     0.9820 ca         1 YIW      -0.110500
     30 C30         -2.5720    -3.7130     1.6910 ca         1 YIW      -0.104500
     31 C31         -1.2280    -3.5040     1.9720 ca         1 YIW      -0.113000
     32 C32         -0.6100    -2.3450     1.5240 ca         1 YIW      -0.104500
     33 C33         -1.3180    -1.4040     0.7910 ca         1 YIW      -0.110500
     34 C34         -5.9300    -0.0640    -2.6690 c3         1 YIW      -0.073300
     35 C35         -5.4240     0.6760    -3.9140 c3         1 YIW      -0.080100
     36 C36         -6.2560    -1.5090    -3.0380 c3         1 YIW      -0.080100
     37 C37         -7.1990     0.6210    -2.1460 c3         1 YIW      -0.080100
     38 C38          2.9020    -0.6390     0.0000 cc         1 YIW      -0.041000
     39 N39          3.9810    -1.2580    -0.5640 na         1 YIW       0.005200
     40 H11C         1.6860    -4.7390    -0.5360 hc         1 YIW       0.045533
     41 H12C         1.6720    -3.0690    -1.0830 hc         1 YIW       0.045533
     42 H13C         2.6120    -4.2690    -1.9650 hc         1 YIW       0.045533
     43 H2           3.1710    -3.3920     0.9130 hc         1 YIW       0.047700
     44 H31C         4.7310    -5.3150    -0.8770 hc         1 YIW       0.045533
     45 H32C         5.2200    -4.7880     0.7350 hc         1 YIW       0.045533
     46 H33C         3.7530    -5.7440     0.5270 hc         1 YIW       0.045533
     47 H8           5.6660     1.3840    -1.8290 ha         1 YIW       0.150000
     48 H9           3.6910     2.5310    -0.8770 ha         1 YIW       0.139000
     49 H38          2.1870    -1.2590     0.5190 h4         1 YIW       0.156000
     50 H13          3.6820     1.3970     2.1990 ha         1 YIW       0.122000
     51 H14          4.4610     2.9260     3.9480 ha         1 YIW       0.119000
     52 H15          3.1270     4.9370     4.5300 ha         1 YIW       0.120000
     53 H16          1.0120     5.3830     3.3390 ha         1 YIW       0.116000
     54 H22         -2.5610     0.9860     1.7500 hn         1 YIW       0.325500
     55 H181        -0.5410     4.9240     1.7230 h1         1 YIW       0.071200
     56 H182         0.0610     4.1230     0.2820 h1         1 YIW       0.071200
     57 H19         -1.2900     2.6030     2.4300 hn         1 YIW       0.312500
     58 H24         -4.5980     2.1840    -1.1810 ha         1 YIW       0.158000
     59 H29         -4.3470    -2.9270     0.7750 ha         1 YIW       0.136500
     60 H33         -0.8130    -0.5240     0.4160 ha         1 YIW       0.136500
     61 H30         -3.0640    -4.6130     2.0360 ha         1 YIW       0.114000
     62 H31         -0.6660    -4.2380     2.5340 ha         1 YIW       0.117000
     63 H32          0.4360    -2.1720     1.7460 ha         1 YIW       0.114000
     64 H351        -4.5240     0.2030    -4.3130 hc         1 YIW       0.036811
     65 H352        -6.1840     0.6680    -4.6980 hc         1 YIW       0.036811
     66 H353        -5.1850     1.7180    -3.6960 hc         1 YIW       0.036811
     67 H361        -6.6310    -2.0690    -2.1810 hc         1 YIW       0.036811
     68 H362        -7.0260    -1.5280    -3.8120 hc         1 YIW       0.036811
     69 H363        -5.3820    -2.0360    -3.4240 hc         1 YIW       0.036811
     70 H371        -7.0190     1.6630    -1.8790 hc         1 YIW       0.036811
     71 H372        -7.9810     0.6050    -2.9070 hc         1 YIW       0.036811
     72 H373        -7.5800     0.1100    -1.2600 hc         1 YIW       0.036811
@<TRIPOS>BOND
     1     1     2 1   
     2     1    40 1   
     3     1    41 1   
     4     1    42 1   
     5     2     3 1   
     6     2     4 1   
     7     2    43 1   
     8     3    44 1   
     9     3    45 1   
    10     3    46 1   
    11     4     5 2   
    12     4    39 1   
    13     5     6 1   
    14     6     7 2   
    15     7     8 1   
    16     7    39 1   
    17     8     9 2   
    18     8    47 1   
    19     9    10 1   
    20     9    48 1   
    21    10    11 1   
    22    10    38 2   
    23    11    12 1   
    24    12    13 ar  
    25    12    17 ar  
    26    13    14 ar  
    27    13    50 1   
    28    14    15 ar  
    29    14    51 1   
    30    15    16 ar  
    31    15    52 1   
    32    16    17 ar  
    33    16    53 1   
    34    17    18 1   
    35    18    19 1   
    36    18    55 1   
    37    18    56 1   
    38    19    20 1   
    39    19    57 1   
    40    20    21 2   
    41    20    22 1   
    42    22    23 1   
    43    22    54 1   
    44    23    24 2   
    45    23    27 1   
    46    24    25 1   
    47    24    58 1   
    48    25    26 2   
    49    25    34 1   
    50    26    27 1   
    51    27    28 1   
    52    28    29 ar  
    53    28    33 ar  
    54    29    30 ar  
    55    29    59 1   
    56    30    31 ar  
    57    30    61 1   
    58    31    32 ar  
    59    31    62 1   
    60    32    33 ar  
    61    32    63 1   
    62    33    60 1   
    63    34    35 1   
    64    34    36 1   
    65    34    37 1   
    66    35    64 1   
    67    35    65 1   
    68    35    66 1   
    69    36    67 1   
    70    36    68 1   
    71    36    69 1   
    72    37    70 1   
    73    37    71 1   
    74    37    72 1   
    75    38    39 1   
    76    38    49 1   
@<TRIPOS>SUBSTRUCTURE
     1 YIW         1 TEMP              0 ****  ****    0 ROOT
