@<TRIPOS>MOLECULE
YIW
   72    76     1     0     0
SMALL
No Charge or Current Charge


@<TRIPOS>ATOM
      1 C1           0.0070    -1.5270    -2.0740 c3         1 YIW      -0.087100
      2 C2           1.1070    -1.7430    -1.0130 c3         1 YIW      -0.063000
      3 C3           1.1720    -3.2260    -0.5740 c3         1 YIW      -0.087100
      4 C4           2.4470    -1.2240    -1.5030 cc         1 YIW       0.327800
      5 N5           3.3710    -1.9250    -2.1560 nd         1 YIW      -0.350700
      6 N6           4.4350    -1.0850    -2.4810 nd         1 YIW      -0.090000
      7 C7           4.1440     0.1220    -2.0350 cc         1 YIW      -0.098000
      8 C8           4.8580     1.3480    -2.1180 cc         1 YIW      -0.080000
      9 C9           4.2840     2.4680    -1.5650 cd         1 YIW      -0.067000
     10 C10          2.9910     2.3360    -0.9300 cd         1 YIW      -0.188000
     11 S11          2.1850     3.7380    -0.2110 ss         1 YIW       0.092000
     12 C12          2.7150     3.2980     1.4560 ca         1 YIW      -0.099000
     13 C13          4.0880     3.1310     1.7340 ca         1 YIW      -0.107000
     14 C14          4.5230     2.7920     3.0250 ca         1 YIW      -0.094000
     15 C15          3.5880     2.6290     4.0570 ca         1 YIW      -0.107000
     16 C16          2.2210     2.8160     3.7990 ca         1 YIW      -0.094000
     17 C17          1.7720     3.1560     2.5060 ca         1 YIW      -0.097300
     18 C18          0.2750     3.3680     2.2940 c3         1 YIW       0.157300
     19 N19         -0.4290     2.0940     2.1410 ns         1 YIW      -0.528900
     20 C20         -1.1360     1.7230     1.0290 c          1 YIW       0.667100
     21 O21         -1.2320     2.4210     0.0350 o          1 YIW      -0.599100
     22 N22         -1.7110     0.4840     1.1720 ns         1 YIW      -0.429100
     23 C23         -2.4880    -0.2290     0.2620 cc         1 YIW       0.015600
     24 C24         -2.8900     0.1280    -0.9920 cd         1 YIW      -0.206000
     25 C25         -3.6760    -0.9330    -1.5160 cd         1 YIW       0.277300
     26 N26         -3.7950    -1.9410    -0.6620 nc         1 YIW      -0.509800
     27 N27         -3.0690    -1.4840     0.4130 na         1 YIW       0.189000
     28 C28         -2.9170    -2.2880     1.5490 ca         1 YIW       0.018800
     29 C29         -4.0490    -2.8340     2.1880 ca         1 YIW      -0.110500
     30 C30         -3.9020    -3.6410     3.3300 ca         1 YIW      -0.104500
     31 C31         -2.6210    -3.9090     3.8410 ca         1 YIW      -0.113000
     32 C32         -1.4870    -3.3730     3.2090 ca         1 YIW      -0.104500
     33 C33         -1.6340    -2.5660     2.0670 ca         1 YIW      -0.110500
     34 C34         -4.3160    -0.9600    -2.9040 c3         1 YIW      -0.073300
     35 C35         -3.1950    -0.9120    -3.9760 c3         1 YIW      -0.080100
     36 C36         -5.1720    -2.2390    -3.1380 c3         1 YIW      -0.080100
     37 C37         -5.2340     0.2810    -3.0650 c3         1 YIW      -0.080100
     38 C38          2.2650     1.1470    -0.8550 cc         1 YIW      -0.041000
     39 N39          2.9360     0.0520    -1.4200 na         1 YIW       0.005200
     40 H11C        -0.9500    -1.9290    -1.7260 hc         1 YIW       0.045533
     41 H12C        -0.1260    -0.4590    -2.2850 hc         1 YIW       0.045533
     42 H13C         0.2660    -2.0320    -3.0120 hc         1 YIW       0.045533
     43 H2           0.8190    -1.1730    -0.1220 hc         1 YIW       0.047700
     44 H31C         1.4390    -3.8750    -1.4170 hc         1 YIW       0.045533
     45 H32C         1.9200    -3.3630     0.2160 hc         1 YIW       0.045533
     46 H33C         0.2030    -3.5620    -0.1850 hc         1 YIW       0.045533
     47 H8           5.8240     1.3850    -2.6120 ha         1 YIW       0.150000
     48 H9           4.7920     3.4270    -1.6080 ha         1 YIW       0.139000
     49 H38          1.2890     1.0120    -0.4090 h4         1 YIW       0.156000
     50 H13          4.8280     3.2680     0.9500 ha         1 YIW       0.122000
     51 H14          5.5840     2.6600     3.2250 ha         1 YIW       0.119000
     52 H15          3.9230     2.3680     5.0590 ha         1 YIW       0.120000
     53 H16          1.5060     2.6990     4.6110 ha         1 YIW       0.116000
     54 H22         -1.5450     0.0530     2.0720 hn         1 YIW       0.325500
     55 H181        -0.1400     3.8840     3.1700 h1         1 YIW       0.071200
     56 H182         0.0840     4.0200     1.4320 h1         1 YIW       0.071200
     57 H19         -0.3950     1.4430     2.9130 hn         1 YIW       0.312500
     58 H24         -2.6560     1.0480    -1.5100 ha         1 YIW       0.158000
     59 H29         -5.0450    -2.6300     1.7980 ha         1 YIW       0.136500
     60 H33         -0.7480    -2.1630     1.5830 ha         1 YIW       0.136500
     61 H30         -4.7810    -4.0570     3.8180 ha         1 YIW       0.114000
     62 H31         -2.5080    -4.5340     4.7240 ha         1 YIW       0.117000
     63 H32         -0.4950    -3.5840     3.6020 ha         1 YIW       0.114000
     64 H351        -2.5320    -1.7810    -3.8830 hc         1 YIW       0.036811
     65 H352        -3.6180    -0.9160    -4.9880 hc         1 YIW       0.036811
     66 H353        -2.5840    -0.0080    -3.8700 hc         1 YIW       0.036811
     67 H361        -5.9840    -2.3090    -2.4040 hc         1 YIW       0.036811
     68 H362        -5.6240    -2.2310    -4.1370 hc         1 YIW       0.036811
     69 H363        -4.5590    -3.1450    -3.0580 hc         1 YIW       0.036811
     70 H371        -4.6640     1.2130    -2.9690 hc         1 YIW       0.036811
     71 H372        -5.7200     0.2860    -4.0480 hc         1 YIW       0.036811
     72 H373        -6.0180     0.2850    -2.2990 hc         1 YIW       0.036811
@<TRIPOS>BOND
     1     1     2 1   
     2     1    40 1   
     3     1    41 1   
     4     1    42 1   
     5     2     3 1   
     6     2     4 1   
     7     2    43 1   
     8     3    44 1   
     9     3    45 1   
    10     3    46 1   
    11     4     5 2   
    12     4    39 1   
    13     5     6 1   
    14     6     7 2   
    15     7     8 1   
    16     7    39 1   
    17     8     9 2   
    18     8    47 1   
    19     9    10 1   
    20     9    48 1   
    21    10    11 1   
    22    10    38 2   
    23    11    12 1   
    24    12    13 ar  
    25    12    17 ar  
    26    13    14 ar  
    27    13    50 1   
    28    14    15 ar  
    29    14    51 1   
    30    15    16 ar  
    31    15    52 1   
    32    16    17 ar  
    33    16    53 1   
    34    17    18 1   
    35    18    19 1   
    36    18    55 1   
    37    18    56 1   
    38    19    20 1   
    39    19    57 1   
    40    20    21 2   
    41    20    22 1   
    42    22    23 1   
    43    22    54 1   
    44    23    24 2   
    45    23    27 1   
    46    24    25 1   
    47    24    58 1   
    48    25    26 2   
    49    25    34 1   
    50    26    27 1   
    51    27    28 1   
    52    28    29 ar  
    53    28    33 ar  
    54    29    30 ar  
    55    29    59 1   
    56    30    31 ar  
    57    30    61 1   
    58    31    32 ar  
    59    31    62 1   
    60    32    33 ar  
    61    32    63 1   
    62    33    60 1   
    63    34    35 1   
    64    34    36 1   
    65    34    37 1   
    66    35    64 1   
    67    35    65 1   
    68    35    66 1   
    69    36    67 1   
    70    36    68 1   
    71    36    69 1   
    72    37    70 1   
    73    37    71 1   
    74    37    72 1   
    75    38    39 1   
    76    38    49 1   
@<TRIPOS>SUBSTRUCTURE
     1 YIW         1 TEMP              0 ****  ****    0 ROOT
