@<TRIPOS>MOLECULE
YIX
   49    51     1     0     0
SMALL
No Charge or Current Charge


@<TRIPOS>ATOM
      1 C1           1.4160     4.0780     1.1440 c3         1 YIX      -0.114100
      2 C2           1.8060     3.3760    -0.1670 c3         1 YIX       0.116000
      3 N3           1.7380     1.9240    -0.0350 ns         1 YIX      -0.516900
      4 C4           1.7320     1.0570    -1.0900 c          1 YIX       0.647100
      5 O5           1.7410     1.4070    -2.2570 o          1 YIX      -0.662100
      6 N6           1.7180    -0.2450    -0.6930 ns         1 YIX      -0.528900
      7 C7           1.7170    -1.3850    -1.6060 c3         1 YIX       0.157300
      8 C8           1.8770    -2.6900    -0.8350 ca         1 YIX      -0.069300
      9 C9           3.1660    -3.0330    -0.3770 ca         1 YIX      -0.114000
     10 C10          3.3840    -4.2230     0.3360 ca         1 YIX      -0.090000
     11 C11          2.3110    -5.0870     0.5960 ca         1 YIX      -0.112000
     12 C12          1.0230    -4.7580     0.1470 ca         1 YIX      -0.072000
     13 C13          0.7910    -3.5610    -0.5580 ca         1 YIX      -0.111000
     14 S14         -0.8960    -3.2420    -1.0990 ss         1 YIX       0.049000
     15 C15         -1.0930    -1.9810     0.1160 cc         1 YIX      -0.173000
     16 C16         -1.0410    -2.2380     1.5360 cc         1 YIX      -0.070000
     17 C17         -1.2490    -1.2090     2.4320 cd         1 YIX      -0.089000
     18 C18         -1.5100     0.0690     1.8490 cd         1 YIX      -0.100000
     19 N19         -1.8030     1.2050     2.4580 nc         1 YIX      -0.103000
     20 N20         -2.0590     2.1530     1.4550 nc         1 YIX      -0.365700
     21 C21         -1.8910     1.5680     0.2670 cd         1 YIX       0.339800
     22 C22         -2.1430     2.2250    -1.0810 c3         1 YIX      -0.071000
     23 C23         -3.4900     1.7660    -1.6880 c3         1 YIX      -0.084100
     24 C24         -2.0710     3.7720    -1.0250 c3         1 YIX      -0.084100
     25 N25         -1.5180     0.2770     0.5090 na         1 YIX       0.016200
     26 C26         -1.3590    -0.7350    -0.4460 cd         1 YIX      -0.027000
     27 H11C         1.4610     5.1660     1.0190 hc         1 YIX       0.046700
     28 H12C         0.3960     3.8080     1.4410 hc         1 YIX       0.046700
     29 H13C         2.1010     3.7960     1.9520 hc         1 YIX       0.046700
     30 H21C         1.1310     3.6980    -0.9710 h1         1 YIX       0.048200
     31 H22C         2.8300     3.6590    -0.4440 h1         1 YIX       0.048200
     32 H3           1.7290     1.5240     0.8940 hn         1 YIX       0.304500
     33 H6           1.6960    -0.4330     0.2990 hn         1 YIX       0.308500
     34 H71C         0.7920    -1.3810    -2.1950 h1         1 YIX       0.064200
     35 H72C         2.5540    -1.2750    -2.3080 h1         1 YIX       0.064200
     36 H9           4.0060    -2.3710    -0.5760 ha         1 YIX       0.116000
     37 H10          4.3840    -4.4750     0.6830 ha         1 YIX       0.119000
     38 H11          2.4770    -6.0120     1.1440 ha         1 YIX       0.120000
     39 H12          0.1960    -5.4350     0.3520 ha         1 YIX       0.129000
     40 H16         -0.8490    -3.2460     1.8890 ha         1 YIX       0.129000
     41 H26         -1.4320    -0.5000    -1.5010 h4         1 YIX       0.169000
     42 H17         -1.2390    -1.3670     3.5050 ha         1 YIX       0.144000
     43 H22         -1.3470     1.9020    -1.7640 hc         1 YIX       0.076700
     44 H231        -4.3280     2.0740    -1.0500 hc         1 YIX       0.041533
     45 H232        -3.6380     2.2050    -2.6830 hc         1 YIX       0.041533
     46 H233        -3.5270     0.6760    -1.7930 hc         1 YIX       0.041533
     47 H241        -2.8800     4.1810    -0.4070 hc         1 YIX       0.041533
     48 H242        -1.1180     4.1050    -0.6020 hc         1 YIX       0.041533
     49 H243        -2.1620     4.2000    -2.0310 hc         1 YIX       0.041533
@<TRIPOS>BOND
     1     1     2 1   
     2     1    27 1   
     3     1    28 1   
     4     1    29 1   
     5     2     3 1   
     6     2    30 1   
     7     2    31 1   
     8     3     4 1   
     9     3    32 1   
    10     4     5 2   
    11     4     6 1   
    12     6     7 1   
    13     6    33 1   
    14     7     8 1   
    15     7    34 1   
    16     7    35 1   
    17     8     9 ar  
    18     8    13 ar  
    19     9    10 ar  
    20     9    36 1   
    21    10    11 ar  
    22    10    37 1   
    23    11    12 ar  
    24    11    38 1   
    25    12    13 ar  
    26    12    39 1   
    27    13    14 1   
    28    14    15 1   
    29    15    16 1   
    30    15    26 2   
    31    16    17 2   
    32    16    40 1   
    33    17    18 1   
    34    17    42 1   
    35    18    19 2   
    36    18    25 1   
    37    19    20 1   
    38    20    21 2   
    39    21    22 1   
    40    21    25 1   
    41    22    23 1   
    42    22    24 1   
    43    22    43 1   
    44    23    44 1   
    45    23    45 1   
    46    23    46 1   
    47    24    47 1   
    48    24    48 1   
    49    24    49 1   
    50    25    26 1   
    51    26    41 1   
@<TRIPOS>SUBSTRUCTURE
     1 YIX         1 TEMP              0 ****  ****    0 ROOT
