@<TRIPOS>MOLECULE
YIX
   49    51     1     0     0
SMALL
abcg2


@<TRIPOS>ATOM
      1 C1           1.4630     3.7690     1.5750 c3         1 YIX      -0.114100
      2 C2           1.4320     3.0870     0.2210 c3         1 YIX       0.116000
      3 N3           1.6610     1.6660     0.3700 ns         1 YIX      -0.516900
      4 C4           1.5660     0.8080    -0.6750 c          1 YIX       0.647100
      5 O5           1.1070     1.1440    -1.7660 o          1 YIX      -0.662100
      6 N6           1.9820    -0.4610    -0.4230 ns         1 YIX      -0.528900
      7 C7           1.9980    -1.4800    -1.4480 c3         1 YIX       0.157300
      8 C8           2.0600    -2.8410    -0.8100 ca         1 YIX      -0.069300
      9 C9           3.3050    -3.3810    -0.5050 ca         1 YIX      -0.114000
     10 C10          3.4300    -4.6240     0.1010 ca         1 YIX      -0.090000
     11 C11          2.2950    -5.3520     0.4200 ca         1 YIX      -0.112000
     12 C12          1.0420    -4.8290     0.1330 ca         1 YIX      -0.072000
     13 C13          0.9190    -3.5820    -0.4740 ca         1 YIX      -0.111000
     14 S14         -0.7240    -3.0520    -0.8990 ss         1 YIX       0.049000
     15 C15         -0.9320    -1.6170     0.1080 cc         1 YIX      -0.173000
     16 C16         -0.7230    -1.6680     1.5210 cc         1 YIX      -0.070000
     17 C17         -0.9390    -0.5740     2.2910 cd         1 YIX      -0.089000
     18 C18         -1.3970     0.6140     1.6700 cd         1 YIX      -0.100000
     19 N19         -1.6850     1.7990     2.1540 nc         1 YIX      -0.103000
     20 N20         -2.0650     2.5700     1.1150 nc         1 YIX      -0.365700
     21 C21         -2.0170     1.8800     0.0090 cd         1 YIX       0.339800
     22 C22         -2.3620     2.3370    -1.3680 c3         1 YIX      -0.071000
     23 C23         -3.7000     1.7460    -1.8240 c3         1 YIX      -0.084100
     24 C24         -2.3920     3.8590    -1.4450 c3         1 YIX      -0.084100
     25 N25         -1.6010     0.6130     0.3100 na         1 YIX       0.016200
     26 C26         -1.3590    -0.4760    -0.4800 cd         1 YIX      -0.027000
     27 H11C         1.2670     4.8350     1.4600 hc         1 YIX       0.046700
     28 H12C         0.7030     3.3560     2.2380 hc         1 YIX       0.046700
     29 H13C         2.4360     3.6620     2.0580 hc         1 YIX       0.046700
     30 H21C         0.4580     3.2510    -0.2410 h1         1 YIX       0.048200
     31 H22C         2.1790     3.5400    -0.4400 h1         1 YIX       0.048200
     32 H3           2.1420     1.3680     1.2040 hn         1 YIX       0.304500
     33 H6           2.4720    -0.6620     0.4340 hn         1 YIX       0.308500
     34 H71C         1.1020    -1.3900    -2.0620 h1         1 YIX       0.064200
     35 H72C         2.8570    -1.3620    -2.1170 h1         1 YIX       0.064200
     36 H9           4.1970    -2.8220    -0.7600 ha         1 YIX       0.116000
     37 H10          4.4130    -5.0210     0.3190 ha         1 YIX       0.119000
     38 H11          2.3780    -6.3210     0.8930 ha         1 YIX       0.120000
     39 H12          0.1510    -5.3900     0.3830 ha         1 YIX       0.129000
     40 H16         -0.3830    -2.5910     1.9710 ha         1 YIX       0.129000
     41 H26         -1.5060    -0.3640    -1.5440 h4         1 YIX       0.169000
     42 H17         -0.7820    -0.5840     3.3610 ha         1 YIX       0.144000
     43 H22         -1.5720     1.9780    -2.0370 hc         1 YIX       0.076700
     44 H231        -4.5160     2.1340    -1.2140 hc         1 YIX       0.041533
     45 H232        -3.8940     2.0200    -2.8610 hc         1 YIX       0.041533
     46 H233        -3.7240     0.6570    -1.7640 hc         1 YIX       0.041533
     47 H241        -3.1700     4.2720    -0.8020 hc         1 YIX       0.041533
     48 H242        -1.4400     4.3000    -1.1500 hc         1 YIX       0.041533
     49 H243        -2.6030     4.1700    -2.4680 hc         1 YIX       0.041533
@<TRIPOS>BOND
     1     1     2 1   
     2     1    27 1   
     3     1    28 1   
     4     1    29 1   
     5     2     3 1   
     6     2    30 1   
     7     2    31 1   
     8     3     4 1   
     9     3    32 1   
    10     4     5 2   
    11     4     6 1   
    12     6     7 1   
    13     6    33 1   
    14     7     8 1   
    15     7    34 1   
    16     7    35 1   
    17     8     9 ar  
    18     8    13 ar  
    19     9    10 ar  
    20     9    36 1   
    21    10    11 ar  
    22    10    37 1   
    23    11    12 ar  
    24    11    38 1   
    25    12    13 ar  
    26    12    39 1   
    27    13    14 1   
    28    14    15 1   
    29    15    16 1   
    30    15    26 2   
    31    16    17 2   
    32    16    40 1   
    33    17    18 1   
    34    17    42 1   
    35    18    19 2   
    36    18    25 1   
    37    19    20 1   
    38    20    21 2   
    39    21    22 1   
    40    21    25 1   
    41    22    23 1   
    42    22    24 1   
    43    22    43 1   
    44    23    44 1   
    45    23    45 1   
    46    23    46 1   
    47    24    47 1   
    48    24    48 1   
    49    24    49 1   
    50    25    26 1   
    51    26    41 1   
@<TRIPOS>SUBSTRUCTURE
     1 YIX         1 TEMP              0 ****  ****    0 ROOT
