@<TRIPOS>MOLECULE
YIY
   57    60     1     0     0
SMALL
abcg2


@<TRIPOS>ATOM
      1 CAR         -9.1560     0.6070    -1.7000 ca         1 YIY       0.294900
      2 CAO         -7.8460     0.3280    -2.0520 ca         1 YIY      -0.130000
      3 NBG         -9.4880     1.0910    -0.5070 nb         1 YIY      -0.642000
      4 CAT         -8.5280     1.3130     0.3740 ca         1 YIY       0.308900
      5 CAQ         -7.1810     1.0620     0.1100 ca         1 YIY       0.087100
      6 OAY         -6.3090     1.3330     1.1110 os         1 YIY      -0.240200
      7 CBC         -4.9630     1.1490     0.8860 ca         1 YIY       0.043100
      8 CAJ         -4.2000     2.1830     0.3660 ca         1 YIY      -0.083500
      9 CAH         -2.8420     2.0030     0.1800 ca         1 YIY      -0.156500
     10 CAK         -4.3640    -0.0540     1.2160 ca         1 YIY      -0.083500
     11 CAI         -3.0010    -0.2370     1.0340 ca         1 YIY      -0.156500
     12 CBB         -2.2160     0.7920     0.5050 ca         1 YIY       0.014000
     13 NAV         -0.8480     0.7160     0.2960 ns         1 YIY      -0.135000
     14 CAZ         -0.0130    -0.3800     0.3330 c          1 YIY       0.773500
     15 OAE         -0.4250    -1.5040     0.6040 o          1 YIY      -0.649100
     16 NAW          1.2540     0.0010     0.0310 ne         1 YIY      -0.820100
     17 CBE          2.2120    -0.8930    -0.0040 cd         1 YIY       0.787500
     18 CAN          2.3050    -2.3030     0.2060 cd         1 YIY      -0.414600
     19 CBF          3.6190    -2.6550     0.0850 cc         1 YIY       0.123800
     20 CBI          4.2810    -4.0030     0.1410 c3         1 YIY       0.000200
     21 CAD          4.8690    -4.3330    -1.2390 c3         1 YIY      -0.087767
     22 CAB          5.3990    -3.9780     1.1910 c3         1 YIY      -0.087767
     23 CAC          3.2520    -5.0670     0.5170 c3         1 YIY      -0.087767
     24 NAU          4.3510    -1.5360    -0.1230 na         1 YIY      -0.510000
     25 NBH          3.4940    -0.4820    -0.2680 na         1 YIY      -0.518200
     26 CBD          4.0080     0.8260    -0.2940 ca         1 YIY       0.313000
     27 CAL          3.3820     1.8080    -1.0550 ca         1 YIY      -0.104000
     28 CAF          3.9160     3.0870    -1.0770 ca         1 YIY      -0.074000
     29 C18         -6.8310     0.5570    -1.1340 ca         1 YIY      -0.150000
     30 CBA          5.0680     3.4000    -0.3700 ca         1 YIY      -0.154000
     31 CAG          5.6670     2.3980     0.3660 ca         1 YIY       0.185000
     32 CAM          5.1620     1.1150     0.4290 ca         1 YIY      -0.181000
     33 HAR         -9.9640     0.4340    -2.4000 h4         1 YIY       0.019100
     34 HAO         -7.6140    -0.0670    -3.0310 ha         1 YIY       0.120000
     35 H18         -5.8020     0.3440    -1.3940 ha         1 YIY       0.133000
     36 HAT         -8.8190     1.7080     1.3420 h4         1 YIY       0.031100
     37 HAK         -4.9570    -0.8600     1.6300 ha         1 YIY       0.126500
     38 HAJ         -4.6590     3.1280     0.1060 ha         1 YIY       0.126500
     39 HAI         -2.5590    -1.1800     1.3110 ha         1 YIY       0.133000
     40 HAH         -2.2550     2.8180    -0.2270 ha         1 YIY       0.133000
     41 HAV         -0.3960     1.5720     0.0140 hn         1 YIY       0.161000
     42 HAN          1.4850    -2.9570     0.4320 ha         1 YIY       0.253000
     43 HAU          5.1880    -1.5160    -0.6920 hn         1 YIY       0.517000
     44 HAC1         2.4450    -5.1280    -0.2150 hc         1 YIY       0.044589
     45 HAC2         3.7360    -6.0430     0.5580 hc         1 YIY       0.044589
     46 HAC3         2.8120    -4.8750     1.4970 hc         1 YIY       0.044589
     47 HAD1         5.6530    -3.6340    -1.5350 hc         1 YIY       0.044589
     48 HAD2         5.3140    -5.3280    -1.2170 hc         1 YIY       0.044589
     49 HAD3         4.0980    -4.3260    -2.0110 hc         1 YIY       0.044589
     50 HAB1         5.0080    -3.7330     2.1790 hc         1 YIY       0.044589
     51 HAB2         5.8690    -4.9600     1.2480 hc         1 YIY       0.044589
     52 HAB3         6.1780    -3.2540     0.9470 hc         1 YIY       0.044589
     53 HAL          2.4930     1.5770    -1.6210 ha         1 YIY       0.146000
     54 HAM          5.6500     0.3690     1.0420 ha         1 YIY       0.143000
     55 HAF          3.4320     3.8520    -1.6690 ha         1 YIY       0.124000
     56 HBA          5.4880     4.3970    -0.3930 ha         1 YIY       0.138000
     57 F32          6.7790     2.6750     1.0610 f          1 YIY      -0.174000
@<TRIPOS>BOND
     1     1     2 ar  
     2     1     3 ar  
     3     1    33 1   
     4     2    29 ar  
     5     2    34 1   
     6     3     4 ar  
     7     4     5 ar  
     8     4    36 1   
     9     5     6 1   
    10     5    29 ar  
    11     6     7 1   
    12     7     8 ar  
    13     7    10 ar  
    14     8     9 ar  
    15     8    38 1   
    16     9    12 ar  
    17     9    40 1   
    18    10    11 ar  
    19    10    37 1   
    20    11    12 ar  
    21    11    39 1   
    22    12    13 1   
    23    13    14 1   
    24    13    41 1   
    25    14    15 2   
    26    14    16 1   
    27    16    17 2   
    28    17    18 1   
    29    17    25 1   
    30    18    19 2   
    31    18    42 1   
    32    19    20 1   
    33    19    24 1   
    34    20    21 1   
    35    20    22 1   
    36    20    23 1   
    37    21    47 1   
    38    21    48 1   
    39    21    49 1   
    40    22    50 1   
    41    22    51 1   
    42    22    52 1   
    43    23    44 1   
    44    23    45 1   
    45    23    46 1   
    46    24    25 1   
    47    24    43 1   
    48    25    26 1   
    49    26    27 ar  
    50    26    32 ar  
    51    27    28 ar  
    52    27    53 1   
    53    28    30 ar  
    54    28    55 1   
    55    29    35 1   
    56    30    31 ar  
    57    30    56 1   
    58    31    32 ar  
    59    31    57 1   
    60    32    54 1   
@<TRIPOS>SUBSTRUCTURE
     1 YIY         1 TEMP              0 ****  ****    0 ROOT
