@<TRIPOS>MOLECULE
YIY
   57    60     1     0     0
SMALL
No Charge or Current Charge


@<TRIPOS>ATOM
      1 CAR         -7.3880     2.1660    -2.8650 ca         1 YIY       0.294900
      2 CAO         -5.9970     1.9600    -2.9430 ca         1 YIY      -0.130000
      3 NBG         -8.0190     2.5110    -1.7180 nb         1 YIY      -0.642000
      4 CAT         -7.2580     2.6560    -0.6010 ca         1 YIY       0.308900
      5 CAQ         -5.8590     2.4570    -0.5840 ca         1 YIY       0.087100
      6 OAY         -5.1530     2.6390     0.5890 os         1 YIY      -0.240200
      7 CBC         -4.0360     1.9010     0.9100 ca         1 YIY       0.043100
      8 CAJ         -2.9390     2.5470     1.5000 ca         1 YIY      -0.083500
      9 CAH         -1.7900     1.8120     1.8400 ca         1 YIY      -0.156500
     10 CAK         -3.9910     0.5130     0.6810 ca         1 YIY      -0.083500
     11 CAI         -2.8410    -0.2210     1.0220 ca         1 YIY      -0.156500
     12 CBB         -1.7300     0.4250     1.6070 ca         1 YIY       0.014000
     13 NAV         -0.5260    -0.2470     1.9420 ns         1 YIY      -0.135000
     14 CAZ         -0.1520    -1.5750     1.8710 c          1 YIY       0.773500
     15 OAE         -0.8720    -2.5230     1.6020 o          1 YIY      -0.649100
     16 NAW          1.1860    -1.6700     2.1630 ne         1 YIY      -0.820100
     17 CBE          1.9780    -2.0900     1.2240 cd         1 YIY       0.787500
     18 CAN          3.1860    -2.7430     1.4720 cd         1 YIY      -0.414600
     19 CBF          3.8670    -2.9880     0.3040 cc         1 YIY       0.123800
     20 CBI          5.2040    -3.6720     0.0600 c3         1 YIY       0.000200
     21 CAD          4.9930    -4.9250    -0.8290 c3         1 YIY      -0.087767
     22 CAB          6.1640    -2.6860    -0.6540 c3         1 YIY      -0.087767
     23 CAC          5.8520    -4.1160     1.3990 c3         1 YIY      -0.087767
     24 NAU          3.0390    -2.4770    -0.6980 na         1 YIY      -0.510000
     25 NBH          1.8770    -1.8900    -0.1440 na         1 YIY      -0.518200
     26 CBD          1.5730    -0.5580    -0.4430 ca         1 YIY       0.313000
     27 CAL          0.3740    -0.2630    -1.1190 ca         1 YIY      -0.104000
     28 CAF          0.0280     1.0680    -1.4090 ca         1 YIY      -0.074000
     29 C18         -5.2100     2.1110    -1.7860 ca         1 YIY      -0.150000
     30 CBA          0.8930     2.1100    -1.0340 ca         1 YIY      -0.154000
     31 CAG          2.0990     1.8140    -0.3800 ca         1 YIY       0.185000
     32 CAM          2.4440     0.4880    -0.0860 ca         1 YIY      -0.181000
     33 HAR         -8.0150     2.0550    -3.7490 h4         1 YIY       0.019100
     34 HAO         -5.5410     1.6910    -3.8920 ha         1 YIY       0.120000
     35 H18         -4.1330     1.9690    -1.8260 ha         1 YIY       0.133000
     36 HAT         -7.7860     2.9370     0.3090 h4         1 YIY       0.031100
     37 HAK         -4.8430     0.0030     0.2390 ha         1 YIY       0.126500
     38 HAJ         -2.9760     3.6180     1.6850 ha         1 YIY       0.126500
     39 HAI         -2.8310    -1.2870     0.8190 ha         1 YIY       0.133000
     40 HAH         -0.9400     2.3270     2.2840 ha         1 YIY       0.133000
     41 HAV          0.2220     0.3650     2.2350 hn         1 YIY       0.161000
     42 HAN          3.5210    -2.9950     2.4670 ha         1 YIY       0.253000
     43 HAU          3.1240    -2.5870    -1.7150 hn         1 YIY       0.517000
     44 HAC1         5.2070    -4.8260     1.9310 hc         1 YIY       0.044589
     45 HAC2         6.8180    -4.6060     1.2250 hc         1 YIY       0.044589
     46 HAC3         6.0270    -3.2550     2.0550 hc         1 YIY       0.044589
     47 HAD1         4.5780    -4.6510    -1.8070 hc         1 YIY       0.044589
     48 HAD2         5.9400    -5.4500    -1.0010 hc         1 YIY       0.044589
     49 HAD3         4.2970    -5.6260    -0.3520 hc         1 YIY       0.044589
     50 HAB1         6.3130    -1.7830    -0.0490 hc         1 YIY       0.044589
     51 HAB2         7.1450    -3.1460    -0.8250 hc         1 YIY       0.044589
     52 HAB3         5.7640    -2.3770    -1.6270 hc         1 YIY       0.044589
     53 HAL         -0.2940    -1.0720    -1.4030 ha         1 YIY       0.146000
     54 HAM          3.3800     0.2720     0.4200 ha         1 YIY       0.143000
     55 HAF         -0.9080     1.2900    -1.9190 ha         1 YIY       0.124000
     56 HBA          0.6340     3.1430    -1.2520 ha         1 YIY       0.138000
     57 F32          2.9330     2.8160    -0.0260 f          1 YIY      -0.174000
@<TRIPOS>BOND
     1     1     2 ar  
     2     1     3 ar  
     3     1    33 1   
     4     2    29 ar  
     5     2    34 1   
     6     3     4 ar  
     7     4     5 ar  
     8     4    36 1   
     9     5     6 1   
    10     5    29 ar  
    11     6     7 1   
    12     7     8 ar  
    13     7    10 ar  
    14     8     9 ar  
    15     8    38 1   
    16     9    12 ar  
    17     9    40 1   
    18    10    11 ar  
    19    10    37 1   
    20    11    12 ar  
    21    11    39 1   
    22    12    13 1   
    23    13    14 1   
    24    13    41 1   
    25    14    15 2   
    26    14    16 1   
    27    16    17 2   
    28    17    18 1   
    29    17    25 1   
    30    18    19 2   
    31    18    42 1   
    32    19    20 1   
    33    19    24 1   
    34    20    21 1   
    35    20    22 1   
    36    20    23 1   
    37    21    47 1   
    38    21    48 1   
    39    21    49 1   
    40    22    50 1   
    41    22    51 1   
    42    22    52 1   
    43    23    44 1   
    44    23    45 1   
    45    23    46 1   
    46    24    25 1   
    47    24    43 1   
    48    25    26 1   
    49    26    27 ar  
    50    26    32 ar  
    51    27    28 ar  
    52    27    53 1   
    53    28    30 ar  
    54    28    55 1   
    55    29    35 1   
    56    30    31 ar  
    57    30    56 1   
    58    31    32 ar  
    59    31    57 1   
    60    32    54 1   
@<TRIPOS>SUBSTRUCTURE
     1 YIY         1 TEMP              0 ****  ****    0 ROOT
