@<TRIPOS>MOLECULE
YIZ
   27    27     1     0     0
SMALL
No Charge or Current Charge


@<TRIPOS>ATOM
      1 C10         16.9720    10.9130    -1.2140 c          1 YIZ       0.592100
      2 C11         17.1240     9.4220    -1.4850 c3         1 YIZ      -0.176100
      3 C04         17.2670    12.7900     4.9470 ca         1 YIZ      -0.153600
      4 C05         18.4140    12.9050     4.1240 ca         1 YIZ      -0.061500
      5 C06         18.2970    12.8580     2.7240 ca         1 YIZ      -0.113000
      6 C07         17.0390    12.6970     2.1160 ca         1 YIZ      -0.072300
      7 C08         16.9180    12.6420     0.6010 c3         1 YIZ       0.143300
      8 C13         15.8960    12.5760     2.9260 ca         1 YIZ      -0.113000
      9 C14         16.0080    12.6220     4.3260 ca         1 YIZ      -0.061500
     10 N02         18.5960    13.0640     7.0260 ns         1 YIZ      -0.340400
     11 N09         17.0380    11.2700     0.1100 ns         1 YIZ      -0.511900
     12 O01         18.7200    13.2870     8.4490 oh         1 YIZ      -0.456100
     13 O12         16.8030    11.7320    -2.1050 o          1 YIZ      -0.603100
     14 O15         16.3690    12.6800     7.1780 o          1 YIZ      -0.606100
     15 H1          17.0660     9.1780    -2.5510 hc         1 YIZ       0.062367
     16 H2          18.0640     9.0730    -1.0410 hc         1 YIZ       0.062367
     17 H3          16.3740     8.8750    -0.9020 hc         1 YIZ       0.062367
     18 H4          19.4070    13.0250     4.5510 ha         1 YIZ       0.129000
     19 H5          19.1900    12.9450     2.1090 ha         1 YIZ       0.120000
     20 H6          17.7030    13.2570     0.1420 h1         1 YIZ       0.069700
     21 H7          15.9460    13.0490     0.2910 h1         1 YIZ       0.069700
     22 H8          14.9170    12.4450     2.4710 ha         1 YIZ       0.120000
     23 H9          15.1070    12.5270     4.9290 ha         1 YIZ       0.129000
     24 H10         19.3770    13.3680     6.4480 hn         1 YIZ       0.340500
     25 H11         17.1810    10.5270     0.7840 hn         1 YIZ       0.315500
     26 H12         17.7760    13.3860     8.7270 ho         1 YIZ       0.473000
     27 C03         17.3500    12.8350     6.4600 c          1 YIZ       0.579700
@<TRIPOS>BOND
     1     1     2 1   
     2     1    11 1   
     3     1    13 2   
     4     2    15 1   
     5     2    16 1   
     6     2    17 1   
     7     3     4 ar  
     8     3     9 ar  
     9     3    27 1   
    10     4     5 ar  
    11     4    18 1   
    12     5     6 ar  
    13     5    19 1   
    14     6     7 1   
    15     6     8 ar  
    16     7    11 1   
    17     7    20 1   
    18     7    21 1   
    19     8     9 ar  
    20     8    22 1   
    21     9    23 1   
    22    10    12 1   
    23    10    24 1   
    24    10    27 1   
    25    11    25 1   
    26    12    26 1   
    27    14    27 2   
@<TRIPOS>SUBSTRUCTURE
     1 YIZ         1 TEMP              0 ****  ****    0 ROOT
