@<TRIPOS>MOLECULE
YIZ
   27    27     1     0     0
SMALL
abcg2


@<TRIPOS>ATOM
      1 C10         17.6880    11.2090    -0.6600 c          1 YIZ       0.592100
      2 C11         18.1900     9.9560    -1.3370 c3         1 YIZ      -0.176100
      3 C04         17.1740    12.8020     4.8630 ca         1 YIZ      -0.153600
      4 C05         17.9020    11.9400     4.0430 ca         1 YIZ      -0.061500
      5 C06         17.5070    11.7210     2.7290 ca         1 YIZ      -0.113000
      6 C07         16.3840    12.3580     2.2090 ca         1 YIZ      -0.072300
      7 C08         15.9390    12.1770     0.7730 c3         1 YIZ       0.143300
      8 C13         15.6510    13.2120     3.0380 ca         1 YIZ      -0.113000
      9 C14         16.0360    13.4300     4.3490 ca         1 YIZ      -0.061500
     10 N02         18.8460    12.8630     6.6060 ns         1 YIZ      -0.340400
     11 N09         16.5610    11.0760     0.0710 ns         1 YIZ      -0.511900
     12 O01         19.2260    13.2540     7.8910 oh         1 YIZ      -0.456100
     13 O12         18.2740    12.2860    -0.7790 o          1 YIZ      -0.603100
     14 O15         16.7570    13.4740     7.1310 o          1 YIZ      -0.606100
     15 H1          18.1910    10.1200    -2.4160 hc         1 YIZ       0.062367
     16 H2          19.2200     9.7790    -1.0260 hc         1 YIZ       0.062367
     17 H3          17.5880     9.0780    -1.1090 hc         1 YIZ       0.062367
     18 H4          18.7670    11.4150     4.4280 ha         1 YIZ       0.129000
     19 H5          18.0750    11.0400     2.1110 ha         1 YIZ       0.120000
     20 H6          16.1570    13.0910     0.2190 h1         1 YIZ       0.069700
     21 H7          14.8580    12.0330     0.7470 h1         1 YIZ       0.069700
     22 H8          14.7690    13.7070     2.6490 ha         1 YIZ       0.120000
     23 H9          15.4640    14.0910     4.9860 ha         1 YIZ       0.129000
     24 H10         19.6020    12.9690     5.9450 hn         1 YIZ       0.340500
     25 H11         16.1490    10.1610     0.1600 hn         1 YIZ       0.315500
     26 H12         18.3910    13.6270     8.2480 ho         1 YIZ       0.473000
     27 C03         17.5520    13.0800     6.2700 c          1 YIZ       0.579700
@<TRIPOS>BOND
     1     1     2 1   
     2     1    11 1   
     3     1    13 2   
     4     2    15 1   
     5     2    16 1   
     6     2    17 1   
     7     3     4 ar  
     8     3     9 ar  
     9     3    27 1   
    10     4     5 ar  
    11     4    18 1   
    12     5     6 ar  
    13     5    19 1   
    14     6     7 1   
    15     6     8 ar  
    16     7    11 1   
    17     7    20 1   
    18     7    21 1   
    19     8     9 ar  
    20     8    22 1   
    21     9    23 1   
    22    10    12 1   
    23    10    24 1   
    24    10    27 1   
    25    11    25 1   
    26    12    26 1   
    27    14    27 2   
@<TRIPOS>SUBSTRUCTURE
     1 YIZ         1 TEMP              0 ****  ****    0 ROOT
