@<TRIPOS>MOLECULE
YJ1
   51    53     1     0     0
SMALL
No Charge or Current Charge


@<TRIPOS>ATOM
      1 C4          -0.3930    26.0370   -14.2200 ca         1 YJ1      -0.138000
      2 C5           0.2840    26.9980   -13.4410 ca         1 YJ1      -0.058000
      3 C6           1.2760    26.5440   -12.5640 ca         1 YJ1      -0.110800
      4 C7           1.5970    25.2200   -12.4470 ca         1 YJ1      -0.034200
      5 C10          2.1150    27.2730   -11.6640 cc         1 YJ1      -0.201200
      6 C15          5.3110    30.0260    -9.0210 c6         1 YJ1      -0.088400
      7 C17          5.6600    30.5530    -6.5390 c6         1 YJ1       0.108700
      8 C21          6.7190    32.4550    -5.2480 c          1 YJ1       0.601100
      9 C24          9.0270    33.4140    -4.7910 c3         1 YJ1       0.158800
     10 C2           0.9420    24.2370   -13.2090 ca         1 YJ1      -0.092300
     11 C3          -0.0660    24.6650   -14.1050 ca         1 YJ1      -0.085000
     12 N8           2.6080    25.0470   -11.5120 na         1 YJ1      -0.183700
     13 C9           2.9320    26.3390   -11.0200 cd         1 YJ1      -0.146300
     14 C11          3.9720    26.6390    -9.9900 c          1 YJ1       0.633300
     15 O12          4.6590    25.7750    -9.4610 o          1 YJ1      -0.622100
     16 N13          4.0990    27.9740    -9.6810 ns         1 YJ1      -0.490900
     17 C14          5.0250    28.5380    -8.6940 c6         1 YJ1       0.109700
     18 C16          6.2510    30.6670    -7.9690 c6         1 YJ1      -0.087900
     19 C18          5.3750    29.0660    -6.2120 c6         1 YJ1      -0.087900
     20 C19          4.4340    28.4250    -7.2640 c6         1 YJ1      -0.088400
     21 N20          6.5880    31.1170    -5.5520 ns         1 YJ1      -0.516900
     22 O22          6.0180    33.3110    -5.7700 o          1 YJ1      -0.592100
     23 C23          7.7670    32.7760    -4.1810 c3         1 YJ1      -0.162400
     24 N25          8.8080    34.8240    -5.1530 n8         1 YJ1      -0.990200
     25 H1          -1.1700    26.3520   -14.9130 ha         1 YJ1       0.112000
     26 H2           0.0430    28.0560   -13.5190 ha         1 YJ1       0.115000
     27 H3           2.1100    28.3500   -11.5140 ha         1 YJ1       0.199000
     28 H4           5.7660    30.1060   -10.0180 hc         1 YJ1       0.050950
     29 H5           4.3680    30.5900    -9.0630 hc         1 YJ1       0.050950
     30 H6           4.7140    31.1140    -6.4950 h1         1 YJ1       0.077700
     31 H7           9.3350    32.8530    -5.6850 h1         1 YJ1       0.026200
     32 H8           9.8470    33.3750    -4.0600 h1         1 YJ1       0.026200
     33 H9           2.3530    22.5900   -13.3330 hc         1 YJ1       0.042367
     34 H10          1.1390    22.4080   -12.0530 hc         1 YJ1       0.042367
     35 H11          0.6940    22.1370   -13.7440 hc         1 YJ1       0.042367
     36 H12         -0.5980    23.9370   -14.7140 ha         1 YJ1       0.110000
     37 H13          3.0360    24.1700   -11.2310 hn         1 YJ1       0.371000
     38 H14          3.4860    28.6050   -10.1770 hn         1 YJ1       0.318500
     39 H15          5.9710    27.9770    -8.7380 h1         1 YJ1       0.079700
     40 H16          7.2350    30.1790    -8.0080 hc         1 YJ1       0.049200
     41 H17          6.4170    31.7230    -8.2220 hc         1 YJ1       0.049200
     42 H18          4.9190    28.9860    -5.2150 hc         1 YJ1       0.049200
     43 H19          6.3170    28.5020    -6.1700 hc         1 YJ1       0.049200
     44 H20          3.4500    28.9120    -7.2250 hc         1 YJ1       0.050950
     45 H21          4.2690    27.3690    -7.0110 hc         1 YJ1       0.050950
     46 H22          7.2010    30.4810    -5.0570 hn         1 YJ1       0.306500
     47 H23          7.3370    33.4630    -3.4440 hc         1 YJ1       0.073200
     48 H24          8.0750    31.8510    -3.6810 hc         1 YJ1       0.073200
     49 H25          9.6270    35.1710    -5.6690 hn         1 YJ1       0.396500
     50 H26          8.0460    34.8740    -5.8410 hn         1 YJ1       0.396500
     51 C1           1.3010    22.7620   -13.0790 c3         1 YJ1      -0.044800
@<TRIPOS>BOND
     1     1     2 ar  
     2     1    11 ar  
     3     1    25 1   
     4     2     3 ar  
     5     2    26 1   
     6     3     4 ar  
     7     3     5 1   
     8     4    10 ar  
     9     4    12 1   
    10     5    13 2   
    11     5    27 1   
    12     6    17 1   
    13     6    18 1   
    14     6    28 1   
    15     6    29 1   
    16     7    18 1   
    17     7    19 1   
    18     7    21 1   
    19     7    30 1   
    20     8    21 1   
    21     8    22 2   
    22     8    23 1   
    23     9    23 1   
    24     9    24 1   
    25     9    31 1   
    26     9    32 1   
    27    10    11 ar  
    28    10    51 1   
    29    11    36 1   
    30    12    13 1   
    31    12    37 1   
    32    13    14 1   
    33    14    15 2   
    34    14    16 1   
    35    16    17 1   
    36    16    38 1   
    37    17    20 1   
    38    17    39 1   
    39    18    40 1   
    40    18    41 1   
    41    19    20 1   
    42    19    42 1   
    43    19    43 1   
    44    20    44 1   
    45    20    45 1   
    46    21    46 1   
    47    23    47 1   
    48    23    48 1   
    49    24    49 1   
    50    24    50 1   
    51    33    51 1   
    52    34    51 1   
    53    35    51 1   
@<TRIPOS>SUBSTRUCTURE
     1 YJ1         1 TEMP              0 ****  ****    0 ROOT
