@<TRIPOS>MOLECULE
YJ1
   51    53     1     0     0
SMALL
abcg2


@<TRIPOS>ATOM
      1 C4          -0.3380    25.7880   -14.2710 ca         1 YJ1      -0.138000
      2 C5           0.2190    26.8740   -13.6360 ca         1 YJ1      -0.058000
      3 C6           1.2000    26.6420   -12.6590 ca         1 YJ1      -0.110800
      4 C7           1.5780    25.3140   -12.3630 ca         1 YJ1      -0.034200
      5 C10          1.9780    27.4880   -11.8210 cc         1 YJ1      -0.201200
      6 C15          5.5640    30.0320    -9.1970 c6         1 YJ1      -0.088400
      7 C17          5.9240    30.6870    -6.7920 c6         1 YJ1       0.108700
      8 C21          6.6170    31.9620    -4.7890 c          1 YJ1       0.601100
      9 C24          8.8420    33.1930    -4.7440 c3         1 YJ1       0.158800
     10 C2           1.0210    24.1980   -13.0040 ca         1 YJ1      -0.092300
     11 C3           0.0610    24.4730   -13.9580 ca         1 YJ1      -0.085000
     12 N8           2.5310    25.3670   -11.3940 na         1 YJ1      -0.183700
     13 C9           2.7780    26.6700   -11.0630 cd         1 YJ1      -0.146300
     14 C11          3.7920    26.9500   -10.0270 c          1 YJ1       0.633300
     15 O12          4.3890    26.0240    -9.4860 o          1 YJ1      -0.622100
     16 N13          4.0090    28.2440    -9.7500 ns         1 YJ1      -0.490900
     17 C14          4.9520    28.7070    -8.7520 c6         1 YJ1       0.109700
     18 C16          6.5620    30.5520    -8.1710 c6         1 YJ1      -0.087900
     19 C18          5.3130    29.3570    -6.3500 c6         1 YJ1      -0.087900
     20 C19          4.3060    28.8480    -7.3750 c6         1 YJ1      -0.088400
     21 N20          6.9050    31.1820    -5.8480 ns         1 YJ1      -0.516900
     22 O22          5.4810    32.3320    -4.5250 o          1 YJ1      -0.592100
     23 C23          7.8200    32.3700    -3.9610 c3         1 YJ1      -0.162400
     24 N25          8.2450    34.4060    -5.2780 n8         1 YJ1      -0.990200
     25 H1          -1.0970    25.9380   -15.0280 ha         1 YJ1       0.112000
     26 H2          -0.0900    27.8820   -13.8800 ha         1 YJ1       0.115000
     27 H3           1.9410    28.5660   -11.7950 ha         1 YJ1       0.199000
     28 H4           6.0560    29.9070   -10.1640 hc         1 YJ1       0.050950
     29 H5           4.7670    30.7710    -9.3380 hc         1 YJ1       0.050950
     30 H6           5.1230    31.4290    -6.8570 h1         1 YJ1       0.077700
     31 H7           9.3180    32.5600    -5.5070 h1         1 YJ1       0.026200
     32 H8           9.6380    33.4780    -4.0540 h1         1 YJ1       0.026200
     33 H9           2.5270    22.6700   -12.8410 hc         1 YJ1       0.042367
     34 H10          1.2820    22.5810   -11.6070 hc         1 YJ1       0.042367
     35 H11          0.9230    22.0700   -13.2550 hc         1 YJ1       0.042367
     36 H12         -0.4020    23.6470   -14.4840 ha         1 YJ1       0.110000
     37 H13          3.0010    24.5820   -10.9710 hn         1 YJ1       0.371000
     38 H14          3.4240    28.9400   -10.1870 hn         1 YJ1       0.318500
     39 H15          5.7510    27.9640    -8.6850 h1         1 YJ1       0.079700
     40 H16          7.4150    29.8660    -8.1110 hc         1 YJ1       0.049200
     41 H17          6.9560    31.5190    -8.4920 hc         1 YJ1       0.049200
     42 H18          4.8310    29.4760    -5.3770 hc         1 YJ1       0.049200
     43 H19          6.1140    28.6210    -6.2210 hc         1 YJ1       0.049200
     44 H20          3.4620    29.5430    -7.4440 hc         1 YJ1       0.050950
     45 H21          3.8980    27.8860    -7.0560 hc         1 YJ1       0.050950
     46 H22          7.8510    30.8500    -5.9550 hn         1 YJ1       0.306500
     47 H23          7.4640    32.9460    -3.1070 hc         1 YJ1       0.073200
     48 H24          8.3120    31.4730    -3.5740 hc         1 YJ1       0.073200
     49 H25          8.9740    34.9970    -5.6570 hn         1 YJ1       0.396500
     50 H26          7.6500    34.1790    -6.0650 hn         1 YJ1       0.396500
     51 C1           1.4590    22.8080   -12.6610 c3         1 YJ1      -0.044800
@<TRIPOS>BOND
     1     1     2 ar  
     2     1    11 ar  
     3     1    25 1   
     4     2     3 ar  
     5     2    26 1   
     6     3     4 ar  
     7     3     5 1   
     8     4    10 ar  
     9     4    12 1   
    10     5    13 2   
    11     5    27 1   
    12     6    17 1   
    13     6    18 1   
    14     6    28 1   
    15     6    29 1   
    16     7    18 1   
    17     7    19 1   
    18     7    21 1   
    19     7    30 1   
    20     8    21 1   
    21     8    22 2   
    22     8    23 1   
    23     9    23 1   
    24     9    24 1   
    25     9    31 1   
    26     9    32 1   
    27    10    11 ar  
    28    10    51 1   
    29    11    36 1   
    30    12    13 1   
    31    12    37 1   
    32    13    14 1   
    33    14    15 2   
    34    14    16 1   
    35    16    17 1   
    36    16    38 1   
    37    17    20 1   
    38    17    39 1   
    39    18    40 1   
    40    18    41 1   
    41    19    20 1   
    42    19    42 1   
    43    19    43 1   
    44    20    44 1   
    45    20    45 1   
    46    21    46 1   
    47    23    47 1   
    48    23    48 1   
    49    24    49 1   
    50    24    50 1   
    51    33    51 1   
    52    34    51 1   
    53    35    51 1   
@<TRIPOS>SUBSTRUCTURE
     1 YJ1         1 TEMP              0 ****  ****    0 ROOT
