@<TRIPOS>MOLECULE
YJ2
   60    64     1     0     0
SMALL
No Charge or Current Charge


@<TRIPOS>ATOM
      1 C1           1.0970    -1.4930    -0.7560 c5         1 YJ2       0.037700
      2 N2          -0.0830    -1.2810     0.1330 n          1 YJ2      -0.388800
      3 C3          -0.1710     0.0910     0.6840 c5         1 YJ2       0.145000
      4 C4           1.2630     0.5950     0.4060 c5         1 YJ2      -0.308700
      5 C5           1.5700    -0.0250    -0.9840 c5         1 YJ2      -0.057400
      6 C6           2.2440    -2.3240    -0.0950 c          1 YJ2       0.602100
      7 O7           2.3270    -2.6820     1.0740 o          1 YJ2      -0.589100
      8 S8           1.3050     2.4460     0.3720 sy         1 YJ2       1.060500
      9 C9           2.9440     2.9090    -0.2300 ca         1 YJ2      -0.256500
     10 C10          4.1160     2.6220     0.5080 ca         1 YJ2       0.199000
     11 C11          5.3740     2.9850    -0.0040 ca         1 YJ2      -0.124000
     12 C12          5.4810     3.6300    -1.2450 ca         1 YJ2      -0.049000
     13 C13          4.3230     3.9120    -1.9850 ca         1 YJ2      -0.128000
     14 C14          3.0600     3.5540    -1.4840 ca         1 YJ2      -0.013000
     15 Cl1          4.0880     1.7950     2.0660 cl         1 YJ2      -0.161000
     16 N16          3.1940    -2.6360    -1.0500 ns         1 YJ2      -0.457900
     17 C17          4.4130    -3.3680    -0.7810 cx         1 YJ2      -0.009900
     18 C18          4.1870    -4.8120    -0.4240 c2         1 YJ2       0.428200
     19 C19          5.6360    -2.9700    -1.5790 cx         1 YJ2      -0.112400
     20 C20          5.5370    -2.6000    -0.1200 cx         1 YJ2      -0.112400
     21 C21         -1.0280    -2.3020     0.3690 c          1 YJ2       0.641100
     22 O22         -0.9240    -3.4000    -0.1650 o          1 YJ2      -0.579100
     23 C23         -2.1850    -1.9680     1.3080 cx         1 YJ2      -0.175700
     24 C24         -3.2330    -1.0980     0.6610 ca         1 YJ2      -0.036300
     25 C25         -3.4900     0.2090     1.1250 ca         1 YJ2      -0.104500
     26 C26         -4.4650     1.0060     0.4990 ca         1 YJ2      -0.082000
     27 C27         -5.1900     0.5000    -0.5910 ca         1 YJ2      -0.016900
     28 C28         -4.9440    -0.8010    -1.0570 ca         1 YJ2      -0.082000
     29 C29         -3.9690    -1.5970    -0.4320 ca         1 YJ2      -0.104500
     30 Br3         -6.5160     1.5850    -1.4420 br         1 YJ2      -0.097100
     31 C31         -2.6450    -3.0760     2.2410 cx         1 YJ2      -0.097900
     32 C32         -1.8820    -1.9020     2.7980 cx         1 YJ2      -0.097900
     33 O33          0.3170     2.8870    -0.6200 o          1 YJ2      -0.510500
     34 O34          1.1890     2.8920     1.7660 o          1 YJ2      -0.510500
     35 N35          3.8890    -5.6920    -1.3150 n2         1 YJ2      -0.711100
     36 H36         -2.9340     0.6160     1.9650 ha         1 YJ2       0.122500
     37 H37         -4.6560     2.0140     0.8600 ha         1 YJ2       0.131000
     38 H38         -5.5070    -1.1940    -1.9010 ha         1 YJ2       0.131000
     39 H39         -3.7840    -2.6040    -0.7980 ha         1 YJ2       0.122500
     40 H40         -3.7070    -3.1400     2.4690 hc         1 YJ2       0.085700
     41 H41         -2.1340    -4.0350     2.2010 hc         1 YJ2       0.085700
     42 H42         -0.8570    -2.0750     3.1190 hc         1 YJ2       0.085700
     43 H43         -2.4350    -1.2000     3.4160 hc         1 YJ2       0.085700
     44 H44          4.2840    -5.0990     0.6190 h4         1 YJ2      -0.039200
     45 H1           0.8140    -1.9780    -1.7000 h1         1 YJ2       0.085700
     46 H51C         2.6250     0.0590    -1.2710 hc         1 YJ2       0.070700
     47 H52C         0.9810     0.4480    -1.7810 hc         1 YJ2       0.070700
     48 H31C        -0.9330     0.6690     0.1420 h1         1 YJ2       0.069700
     49 H32C        -0.4070     0.1120     1.7560 h1         1 YJ2       0.069700
     50 H4           1.9650     0.2630     1.1780 h1         1 YJ2       0.127700
     51 H16          3.0090    -2.3190    -1.9950 hn         1 YJ2       0.322500
     52 H14          2.1780     3.7830    -2.0810 ha         1 YJ2       0.149000
     53 H11          6.2720     2.7600     0.5670 ha         1 YJ2       0.135000
     54 H12          6.4590     3.9070    -1.6350 ha         1 YJ2       0.124000
     55 H13          4.4030     4.4100    -2.9490 ha         1 YJ2       0.127000
     56 H191         6.3390    -3.7520    -1.8560 hc         1 YJ2       0.080450
     57 H192         5.5360    -2.1720    -2.3110 hc         1 YJ2       0.080450
     58 H201         5.3660    -1.5550     0.1280 hc         1 YJ2       0.080450
     59 H202         6.1750    -3.1330     0.5810 hc         1 YJ2       0.080450
     60 H35          3.7790    -6.6070    -0.8560 hn         1 YJ2       0.377400
@<TRIPOS>BOND
     1     1     2 1   
     2     1     5 1   
     3     1     6 1   
     4     1    45 1   
     5     2     3 1   
     6     2    21 1   
     7     3     4 1   
     8     3    48 1   
     9     3    49 1   
    10     4     5 1   
    11     4     8 1   
    12     4    50 1   
    13     5    46 1   
    14     5    47 1   
    15     6     7 2   
    16     6    16 1   
    17     8     9 1   
    18     8    33 2   
    19     8    34 2   
    20     9    10 ar  
    21     9    14 ar  
    22    10    11 ar  
    23    10    15 1   
    24    11    12 ar  
    25    11    53 1   
    26    12    13 ar  
    27    12    54 1   
    28    13    14 ar  
    29    13    55 1   
    30    14    52 1   
    31    16    17 1   
    32    16    51 1   
    33    17    18 1   
    34    17    19 1   
    35    17    20 1   
    36    18    35 2   
    37    18    44 1   
    38    19    20 1   
    39    19    56 1   
    40    19    57 1   
    41    20    58 1   
    42    20    59 1   
    43    21    22 2   
    44    21    23 1   
    45    23    24 1   
    46    23    31 1   
    47    23    32 1   
    48    24    25 ar  
    49    24    29 ar  
    50    25    26 ar  
    51    25    36 1   
    52    26    27 ar  
    53    26    37 1   
    54    27    28 ar  
    55    27    30 1   
    56    28    29 ar  
    57    28    38 1   
    58    29    39 1   
    59    31    32 1   
    60    31    40 1   
    61    31    41 1   
    62    32    42 1   
    63    32    43 1   
    64    35    60 1   
@<TRIPOS>SUBSTRUCTURE
     1 YJ2         1 TEMP              0 ****  ****    0 ROOT
