@<TRIPOS>MOLECULE
YJ2
   60    64     1     0     0
SMALL
bcc


@<TRIPOS>ATOM
      1 C1           1.1420    -1.4150    -1.0240 c5         1 YJ2       0.037700
      2 N2          -0.0350    -1.2580    -0.1980 n          1 YJ2      -0.455800
      3 C3          -0.1130     0.0400     0.4560 c5         1 YJ2       0.145000
      4 C4           1.2270     0.6810     0.0880 c5         1 YJ2      -0.197900
      5 C5           1.6150     0.0270    -1.2300 c5         1 YJ2      -0.057400
      6 C6           2.2110    -2.2170    -0.2800 c          1 YJ2       0.669100
      7 O7           2.3010    -2.1760     0.9330 o          1 YJ2      -0.589100
      8 S8           1.0460     2.4630    -0.0210 sy         1 YJ2       1.091300
      9 C9           2.6880     3.0340    -0.4190 ca         1 YJ2      -0.256500
     10 C10          3.7410     3.0040     0.4940 ca         1 YJ2       0.107400
     11 C11          4.9890     3.4790     0.1270 ca         1 YJ2      -0.142000
     12 C12          5.1860     3.9900    -1.1470 ca         1 YJ2      -0.067000
     13 C13          4.1430     4.0220    -2.0600 ca         1 YJ2      -0.146000
     14 C14          2.8960     3.5430    -1.6960 ca         1 YJ2      -0.031000
     15 CL1          3.5570     2.3660     2.0870 cl         1 YJ2      -0.069400
     16 N16          3.0830    -2.8510    -1.0810 ns         1 YJ2      -0.524900
     17 C17          4.1820    -3.5940    -0.5750 cx         1 YJ2      -0.009900
     18 C18          3.8920    -4.9570    -0.0800 c2         1 YJ2       0.428200
     19 C19          5.5160    -3.3940    -1.2520 cx         1 YJ2      -0.112400
     20 C20          5.2930    -2.8400     0.1070 cx         1 YJ2      -0.112400
     21 C21         -0.7570    -2.3510     0.1340 c          1 YJ2       0.708100
     22 O22         -0.4830    -3.4450    -0.3310 o          1 YJ2      -0.579100
     23 C23         -1.8870    -2.1300     1.1050 cx         1 YJ2      -0.175700
     24 C24         -2.8870    -1.0930     0.7080 ca         1 YJ2      -0.036300
     25 C25         -3.3430    -0.1080     1.5770 ca         1 YJ2      -0.122500
     26 C26         -4.2840     0.8290     1.1710 ca         1 YJ2      -0.100000
     27 C27         -4.7680     0.7850    -0.1260 ca         1 YJ2      -0.016900
     28 C28         -4.3290    -0.1850    -1.0160 ca         1 YJ2      -0.100000
     29 C29         -3.3960    -1.1170    -0.5900 ca         1 YJ2      -0.122500
     30 BR3         -6.0390     2.0610    -0.6920 br         1 YJ2      -0.097100
     31 C31         -2.3770    -3.3490     1.8350 cx         1 YJ2      -0.097900
     32 C32         -1.5160    -2.3650     2.5490 cx         1 YJ2      -0.097900
     33 O33          0.1940     2.7660    -1.1670 o          1 YJ2      -0.581300
     34 O34          0.6480     2.9660     1.2870 o          1 YJ2      -0.581300
     35 N35          2.7380    -5.4650    -0.1360 n2         1 YJ2      -0.711100
     36 H36         -2.9620    -0.0440     2.5870 ha         1 YJ2       0.140500
     37 H37         -4.6200     1.5850     1.8680 ha         1 YJ2       0.149000
     38 H38         -4.7040    -0.2270    -2.0300 ha         1 YJ2       0.149000
     39 H39         -3.0690    -1.8770    -1.2890 ha         1 YJ2       0.140500
     40 H40         -3.4310    -3.3700     2.0820 hc         1 YJ2       0.085700
     41 H41         -1.9590    -4.3070     1.5580 hc         1 YJ2       0.085700
     42 H42         -0.4870    -2.6360     2.7510 hc         1 YJ2       0.085700
     43 H43         -1.9600    -1.7360     3.3100 hc         1 YJ2       0.085700
     44 H44          4.7650    -5.4770     0.3270 h4         1 YJ2      -0.039200
     45 H1           0.8980    -1.8830    -1.9800 h1         1 YJ2       0.085700
     46 H51C         2.6790     0.0980    -1.4510 hc         1 YJ2       0.070700
     47 H52C         1.0650     0.4680    -2.0620 hc         1 YJ2       0.070700
     48 H31C        -0.9580     0.6150     0.0690 h1         1 YJ2       0.069700
     49 H32C        -0.2280    -0.0540     1.5350 h1         1 YJ2       0.069700
     50 H4           1.9680     0.4890     0.8640 h1         1 YJ2       0.127700
     51 H16          2.8580    -2.9490    -2.0590 hn         1 YJ2       0.322500
     52 H14          2.0830     3.5630    -2.4090 ha         1 YJ2       0.167000
     53 H11          5.8050     3.4500     0.8360 ha         1 YJ2       0.153000
     54 H12          6.1640     4.3600    -1.4230 ha         1 YJ2       0.142000
     55 H13          4.2960     4.4180    -3.0540 ha         1 YJ2       0.145000
     56 H191         6.1520    -4.2630    -1.3670 hc         1 YJ2       0.080450
     57 H192         5.5340    -2.7090    -2.0900 hc         1 YJ2       0.080450
     58 H201         5.1630    -1.7710     0.2100 hc         1 YJ2       0.080450
     59 H202         5.7760    -3.3140     0.9520 hc         1 YJ2       0.080450
     60 H35          2.7540    -6.4040     0.2500 hn         1 YJ2       0.377400
@<TRIPOS>BOND
     1     1     2 1   
     2     1     5 1   
     3     1     6 1   
     4     1    45 1   
     5     2     3 1   
     6     2    21 1   
     7     3     4 1   
     8     3    48 1   
     9     3    49 1   
    10     4     5 1   
    11     4     8 1   
    12     4    50 1   
    13     5    46 1   
    14     5    47 1   
    15     6     7 2   
    16     6    16 1   
    17     8     9 1   
    18     8    33 2   
    19     8    34 2   
    20     9    10 ar  
    21     9    14 ar  
    22    10    11 ar  
    23    10    15 1   
    24    11    12 ar  
    25    11    53 1   
    26    12    13 ar  
    27    12    54 1   
    28    13    14 ar  
    29    13    55 1   
    30    14    52 1   
    31    16    17 1   
    32    16    51 1   
    33    17    18 1   
    34    17    19 1   
    35    17    20 1   
    36    18    35 2   
    37    18    44 1   
    38    19    20 1   
    39    19    56 1   
    40    19    57 1   
    41    20    58 1   
    42    20    59 1   
    43    21    22 2   
    44    21    23 1   
    45    23    24 1   
    46    23    31 1   
    47    23    32 1   
    48    24    25 ar  
    49    24    29 ar  
    50    25    26 ar  
    51    25    36 1   
    52    26    27 ar  
    53    26    37 1   
    54    27    28 ar  
    55    27    30 1   
    56    28    29 ar  
    57    28    38 1   
    58    29    39 1   
    59    31    32 1   
    60    31    40 1   
    61    31    41 1   
    62    32    42 1   
    63    32    43 1   
    64    35    60 1   
@<TRIPOS>SUBSTRUCTURE
     1 YJ2         1 TEMP              0 ****  ****    0 ROOT
