@<TRIPOS>MOLECULE
YJ4
   44    47     1     0     0
SMALL
No Charge or Current Charge


@<TRIPOS>ATOM
      1 C10         18.4080   -64.5320   -46.0110 ca         1 YJ4      -0.178000
      2 C13         18.9160   -67.3520   -42.8200 c6         1 YJ4       0.142800
      3 C21         17.6540   -65.9380   -36.6330 c3         1 YJ4       0.237800
      4 C22         17.4020   -64.4460   -36.3500 c3         1 YJ4      -0.119100
      5 C24         13.7070   -65.8150   -42.4640 ca         1 YJ4       0.307900
      6 C26         13.8140   -65.7790   -40.0500 ca         1 YJ4      -0.088000
      7 C01         17.2900   -66.0690   -39.1710 ca         1 YJ4       0.427900
      8 C02         15.2130   -65.8940   -40.1430 ca         1 YJ4       0.054000
      9 C03         15.8110   -65.9560   -41.4360 ca         1 YJ4       0.103000
     10 C04         17.2420   -66.0700   -41.4500 ca         1 YJ4       0.455900
     11 C05         17.9440   -65.1810   -43.6880 ca         1 YJ4       0.238000
     12 C06         17.3650   -63.9080   -43.4830 ca         1 YJ4      -0.052000
     13 C07         17.2960   -62.9650   -44.5270 ca         1 YJ4      -0.202000
     14 C08         17.8140   -63.2800   -45.7990 ca         1 YJ4       0.159100
     15 C09         17.1870   -61.0890   -46.7460 c3         1 YJ4       0.148900
     16 C11         18.4820   -65.4730   -44.9670 ca         1 YJ4      -0.005000
     17 C12         19.3360   -67.7090   -44.2720 c          1 YJ4       0.559000
     18 C25         13.0520   -65.7380   -41.2270 ca         1 YJ4      -0.127000
     19 N15         15.9610   -65.9490   -39.0230 nb         1 YJ4      -0.275000
     20 N16         18.0230   -66.1450   -42.6370 nh         1 YJ4      -0.786100
     21 N17         19.1050   -66.7190   -45.2010 ns         1 YJ4      -0.140000
     22 N18         17.9660   -66.1400   -40.3180 nb         1 YJ4      -0.327000
     23 N23         15.0500   -65.9240   -42.5730 nb         1 YJ4      -0.615000
     24 O19         17.7730   -62.3980   -46.8590 os         1 YJ4      -0.339100
     25 O20         19.8400   -68.7860   -44.5740 o          1 YJ4      -0.531000
     26 H1          18.8180   -64.7690   -46.9890 ha         1 YJ4       0.133000
     27 H2          18.4230   -68.2540   -42.4300 h1         1 YJ4       0.089700
     28 H3          19.8550   -67.2140   -42.2640 h1         1 YJ4       0.089700
     29 H4          16.7470   -66.5180   -36.4100 h1         1 YJ4       0.056200
     30 H5          18.4440   -66.2900   -35.9550 h1         1 YJ4       0.056200
     31 H6          17.1210   -64.3040   -35.3000 hc         1 YJ4       0.043033
     32 H7          18.3060   -63.8560   -36.5450 hc         1 YJ4       0.043033
     33 H8          16.5900   -64.0570   -36.9750 hc         1 YJ4       0.043033
     34 H9          13.1430   -65.7900   -43.3960 h4         1 YJ4       0.022100
     35 H10         13.3280   -65.7270   -39.0780 ha         1 YJ4       0.135000
     36 H11         16.9680   -63.6390   -42.5090 ha         1 YJ4       0.123000
     37 H12         16.8380   -62.0010   -44.3260 ha         1 YJ4       0.122000
     38 H13         17.2580   -60.5570   -47.7020 h1         1 YJ4       0.042033
     39 H14         16.1260   -61.1600   -46.4740 h1         1 YJ4       0.042033
     40 H15         17.7070   -60.4930   -45.9860 h1         1 YJ4       0.042033
     41 H16         11.9700   -65.6510   -41.1880 ha         1 YJ4       0.124000
     42 H17         19.0720   -66.2370   -38.2110 hn         1 YJ4       0.503000
     43 H18         19.3900   -66.9140   -46.1520 hn         1 YJ4       0.163000
     44 N14         18.0710   -66.1440   -38.0310 nu         1 YJ4      -0.919100
@<TRIPOS>BOND
     1     1    14 ar  
     2     1    16 ar  
     3     1    26 1   
     4     2    17 1   
     5     2    20 1   
     6     2    27 1   
     7     2    28 1   
     8     3     4 1   
     9     3    29 1   
    10     3    30 1   
    11     3    44 1   
    12     4    31 1   
    13     4    32 1   
    14     4    33 1   
    15     5    18 ar  
    16     5    23 ar  
    17     5    34 1   
    18     6     8 ar  
    19     6    18 ar  
    20     6    35 1   
    21     7    19 ar  
    22     7    22 ar  
    23     7    44 1   
    24     8     9 ar  
    25     8    19 ar  
    26     9    10 ar  
    27     9    23 ar  
    28    10    20 1   
    29    10    22 ar  
    30    11    12 ar  
    31    11    16 ar  
    32    11    20 1   
    33    12    13 ar  
    34    12    36 1   
    35    13    14 ar  
    36    13    37 1   
    37    14    24 1   
    38    15    24 1   
    39    15    38 1   
    40    15    39 1   
    41    15    40 1   
    42    16    21 1   
    43    17    21 1   
    44    17    25 2   
    45    18    41 1   
    46    21    43 1   
    47    42    44 1   
@<TRIPOS>SUBSTRUCTURE
     1 YJ4         1 TEMP              0 ****  ****    0 ROOT
