@<TRIPOS>MOLECULE
YJ4
   44    47     1     0     0
SMALL
abcg2


@<TRIPOS>ATOM
      1 C10         18.1390   -64.7600   -46.0360 ca         1 YJ4      -0.178000
      2 C13         19.3580   -66.6250   -42.5970 c6         1 YJ4       0.142800
      3 C21         17.4220   -66.4640   -36.6960 c3         1 YJ4       0.237800
      4 C22         17.4010   -65.0620   -36.1040 c3         1 YJ4      -0.119100
      5 C24         13.9760   -65.3370   -42.5490 ca         1 YJ4       0.307900
      6 C26         13.9170   -65.4000   -40.1580 ca         1 YJ4      -0.088000
      7 C01         17.2440   -66.1750   -39.1370 ca         1 YJ4       0.427900
      8 C02         15.3090   -65.6420   -40.1720 ca         1 YJ4       0.054000
      9 C03         15.9350   -65.6530   -41.4340 ca         1 YJ4       0.103000
     10 C04         17.3610   -65.8830   -41.4090 ca         1 YJ4       0.455900
     11 C05         17.9070   -65.0340   -43.6470 ca         1 YJ4       0.238000
     12 C06         17.4300   -63.7380   -43.5600 ca         1 YJ4      -0.052000
     13 C07         17.2520   -62.9630   -44.6970 ca         1 YJ4      -0.202000
     14 C08         17.5990   -63.4780   -45.9460 ca         1 YJ4       0.159100
     15 C09         16.9380   -61.5020   -47.0790 c3         1 YJ4       0.148900
     16 C11         18.2950   -65.5270   -44.8930 ca         1 YJ4      -0.005000
     17 C12         19.4360   -67.4110   -43.8930 c          1 YJ4       0.559000
     18 C25         13.2550   -65.2440   -41.3440 ca         1 YJ4      -0.127000
     19 N15         15.9660   -65.8810   -39.0200 nb         1 YJ4      -0.275000
     20 N16         18.1150   -65.8820   -42.5460 nh         1 YJ4      -0.786100
     21 N17         18.8420   -66.8060   -44.9530 ns         1 YJ4      -0.140000
     22 N18         17.9650   -66.1650   -40.2860 nb         1 YJ4      -0.327000
     23 N23         15.2690   -65.5330   -42.5900 nb         1 YJ4      -0.615000
     24 O19         17.4680   -62.8120   -47.1070 os         1 YJ4      -0.339100
     25 O20         20.0040   -68.4800   -43.9750 o          1 YJ4      -0.531000
     26 H1          18.4420   -65.1530   -46.9990 ha         1 YJ4       0.133000
     27 H2          19.4100   -67.3210   -41.7650 h1         1 YJ4       0.089700
     28 H3          20.2300   -65.9630   -42.5290 h1         1 YJ4       0.089700
     29 H4          16.4190   -66.8900   -36.6890 h1         1 YJ4       0.056200
     30 H5          18.0450   -67.1180   -36.0850 h1         1 YJ4       0.056200
     31 H6          17.0190   -65.0880   -35.0830 hc         1 YJ4       0.043033
     32 H7          18.4020   -64.6320   -36.0760 hc         1 YJ4       0.043033
     33 H8          16.7600   -64.4000   -36.6860 hc         1 YJ4       0.043033
     34 H9          13.4610   -65.2490   -43.4980 h4         1 YJ4       0.022100
     35 H10         13.3990   -65.3580   -39.2080 ha         1 YJ4       0.135000
     36 H11         17.1720   -63.3190   -42.5960 ha         1 YJ4       0.123000
     37 H12         16.8580   -61.9630   -44.5860 ha         1 YJ4       0.122000
     38 H13         16.9130   -61.1570   -48.1100 h1         1 YJ4       0.042033
     39 H14         15.9210   -61.4800   -46.6770 h1         1 YJ4       0.042033
     40 H15         17.5620   -60.8190   -46.4960 h1         1 YJ4       0.042033
     41 H16         12.1880   -65.0650   -41.3690 ha         1 YJ4       0.124000
     42 H17         18.9360   -66.6310   -38.1640 hn         1 YJ4       0.503000
     43 H18         18.9420   -67.2480   -45.8570 hn         1 YJ4       0.163000
     44 N14         17.9440   -66.5180   -38.0420 nu         1 YJ4      -0.919100
@<TRIPOS>BOND
     1     1    14 ar  
     2     1    16 ar  
     3     1    26 1   
     4     2    17 1   
     5     2    20 1   
     6     2    27 1   
     7     2    28 1   
     8     3     4 1   
     9     3    29 1   
    10     3    30 1   
    11     3    44 1   
    12     4    31 1   
    13     4    32 1   
    14     4    33 1   
    15     5    18 ar  
    16     5    23 ar  
    17     5    34 1   
    18     6     8 ar  
    19     6    18 ar  
    20     6    35 1   
    21     7    19 ar  
    22     7    22 ar  
    23     7    44 1   
    24     8     9 ar  
    25     8    19 ar  
    26     9    10 ar  
    27     9    23 ar  
    28    10    20 1   
    29    10    22 ar  
    30    11    12 ar  
    31    11    16 ar  
    32    11    20 1   
    33    12    13 ar  
    34    12    36 1   
    35    13    14 ar  
    36    13    37 1   
    37    14    24 1   
    38    15    24 1   
    39    15    38 1   
    40    15    39 1   
    41    15    40 1   
    42    16    21 1   
    43    17    21 1   
    44    17    25 2   
    45    18    41 1   
    46    21    43 1   
    47    42    44 1   
@<TRIPOS>SUBSTRUCTURE
     1 YJ4         1 TEMP              0 ****  ****    0 ROOT
