@<TRIPOS>MOLECULE
YJ5
   48    48     1     0     0
SMALL
No Charge or Current Charge


@<TRIPOS>ATOM
      1 C10         11.3100    17.3670     2.1790 c          1 YJ5       0.603100
      2 C04         13.1390    17.1070    -3.3930 ca         1 YJ5      -0.158600
      3 C05         13.6450    17.6870    -2.2070 ca         1 YJ5      -0.068500
      4 C06         13.2690    17.1930    -0.9460 ca         1 YJ5      -0.113000
      5 C07         12.3810    16.1100    -0.8400 ca         1 YJ5      -0.072300
      6 C08         11.9700    15.5790     0.5290 c3         1 YJ5       0.137300
      7 C11         10.2090    18.1830     2.8970 c3         1 YJ5      -0.153400
      8 C12         10.5910    18.7730     4.2800 c3         1 YJ5      -0.059400
      9 C13         10.8980    17.7200     5.3730 c3         1 YJ5      -0.078400
     10 C14          9.7140    16.7910     5.7130 c3         1 YJ5      -0.090100
     11 C16          9.5560    16.2910     0.6790 c3         1 YJ5       0.101000
     12 C17          8.7530    15.1670     1.3710 c3         1 YJ5      -0.098400
     13 C18          7.2990    15.0260     0.8630 c3         1 YJ5      -0.074400
     14 C19          6.3990    16.2370     1.1850 c3         1 YJ5      -0.092100
     15 C20         11.8740    15.5230    -2.0140 ca         1 YJ5      -0.113000
     16 C21         12.2470    16.0130    -3.2780 ca         1 YJ5      -0.068500
     17 N02         12.9840    17.0990    -5.8670 ns         1 YJ5      -0.393400
     18 N09         10.9400    16.4090     1.1990 n          1 YJ5      -0.417800
     19 O01         13.1270    17.7130    -7.1720 oh         1 YJ5      -0.413100
     20 O15         12.4900    17.5520     2.4480 o          1 YJ5      -0.599100
     21 O22         14.3950    18.5660    -4.8320 o          1 YJ5      -0.574100
     22 H1          14.3340    18.5280    -2.2570 ha         1 YJ5       0.124000
     23 H2          13.6710    17.6570    -0.0490 ha         1 YJ5       0.118500
     24 H3          11.5780    14.5590     0.4160 h1         1 YJ5       0.069200
     25 H4          12.8610    15.4930     1.1640 h1         1 YJ5       0.069200
     26 H5           9.9250    18.9910     2.2130 hc         1 YJ5       0.058200
     27 H6           9.2850    17.6020     2.9660 hc         1 YJ5       0.058200
     28 H7          11.4610    19.4310     4.1630 hc         1 YJ5       0.047200
     29 H8           9.7700    19.4130     4.6280 hc         1 YJ5       0.047200
     30 H9          11.7580    17.1090     5.0710 hc         1 YJ5       0.047200
     31 H10         11.2000    18.2460     6.2870 hc         1 YJ5       0.047200
     32 H11          9.9730    16.1380     6.5540 hc         1 YJ5       0.028700
     33 H12          8.8290    17.3760     5.9940 hc         1 YJ5       0.028700
     34 H13          9.4540    16.1540     4.8590 hc         1 YJ5       0.028700
     35 H14          9.0350    17.2500     0.7770 h1         1 YJ5       0.051700
     36 H15          9.5990    16.0760    -0.3960 h1         1 YJ5       0.051700
     37 H16          8.7410    15.3350     2.4540 hc         1 YJ5       0.046200
     38 H17          9.2720    14.2140     1.2100 hc         1 YJ5       0.046200
     39 H18          6.8560    14.1320     1.3190 hc         1 YJ5       0.042200
     40 H19          7.3050    14.8560    -0.2200 hc         1 YJ5       0.042200
     41 H20          5.3670    16.0360     0.8730 hc         1 YJ5       0.033367
     42 H21          6.3960    16.4440     2.2630 hc         1 YJ5       0.033367
     43 H22          6.7400    17.1370     0.6600 hc         1 YJ5       0.033367
     44 H23         11.1870    14.6820    -1.9490 ha         1 YJ5       0.118500
     45 H24         11.8340    15.5230    -4.1570 ha         1 YJ5       0.124000
     46 H25         12.1900    16.4730    -5.7530 hn         1 YJ5       0.342500
     47 H26         13.4100    16.9670    -7.7510 ho         1 YJ5       0.437000
     48 C03         13.5670    17.6670    -4.7380 c          1 YJ5       0.620700
@<TRIPOS>BOND
     1     1     7 1   
     2     1    18 1   
     3     1    20 2   
     4     2     3 ar  
     5     2    16 ar  
     6     2    48 1   
     7     3     4 ar  
     8     3    22 1   
     9     4     5 ar  
    10     4    23 1   
    11     5     6 1   
    12     5    15 ar  
    13     6    18 1   
    14     6    24 1   
    15     6    25 1   
    16     7     8 1   
    17     7    26 1   
    18     7    27 1   
    19     8     9 1   
    20     8    28 1   
    21     8    29 1   
    22     9    10 1   
    23     9    30 1   
    24     9    31 1   
    25    10    32 1   
    26    10    33 1   
    27    10    34 1   
    28    11    12 1   
    29    11    18 1   
    30    11    35 1   
    31    11    36 1   
    32    12    13 1   
    33    12    37 1   
    34    12    38 1   
    35    13    14 1   
    36    13    39 1   
    37    13    40 1   
    38    14    41 1   
    39    14    42 1   
    40    14    43 1   
    41    15    16 ar  
    42    15    44 1   
    43    16    45 1   
    44    17    19 1   
    45    17    46 1   
    46    17    48 1   
    47    19    47 1   
    48    21    48 2   
@<TRIPOS>SUBSTRUCTURE
     1 YJ5         1 TEMP              0 ****  ****    0 ROOT
