@<TRIPOS>MOLECULE
YJ5
   48    48     1     0     0
SMALL
abcg2


@<TRIPOS>ATOM
      1 C10         11.3230    17.1010     2.0250 c          1 YJ5       0.603100
      2 C04         12.7190    16.9970    -3.5790 ca         1 YJ5      -0.158600
      3 C05         12.2260    17.8660    -2.6110 ca         1 YJ5      -0.068500
      4 C06         11.8180    17.3890    -1.3760 ca         1 YJ5      -0.113000
      5 C07         11.8670    16.0290    -1.0890 ca         1 YJ5      -0.072300
      6 C08         11.4470    15.4640     0.2480 c3         1 YJ5       0.137300
      7 C11         10.4720    18.0230     2.8780 c3         1 YJ5      -0.153400
      8 C12         11.1530    18.4600     4.1690 c3         1 YJ5      -0.059400
      9 C13         11.3740    17.3430     5.1890 c3         1 YJ5      -0.078400
     10 C14         10.0890    16.6900     5.6800 c3         1 YJ5      -0.090100
     11 C16          9.2670    16.4750     0.7740 c3         1 YJ5       0.101000
     12 C17          8.4270    15.4360     1.5100 c3         1 YJ5      -0.098400
     13 C18          6.9550    15.4710     1.1100 c3         1 YJ5      -0.074400
     14 C19          6.2440    16.7680     1.4760 c3         1 YJ5      -0.092100
     15 C20         12.3340    15.1590    -2.0700 ca         1 YJ5      -0.113000
     16 C21         12.7620    15.6320    -3.2990 ca         1 YJ5      -0.068500
     17 N02         14.1730    16.9400    -5.4670 ns         1 YJ5      -0.393400
     18 N09         10.6890    16.3770     1.0690 n          1 YJ5      -0.417800
     19 O01         14.5770    17.2730    -6.7210 oh         1 YJ5      -0.413100
     20 O15         12.5350    17.0310     2.1790 o          1 YJ5      -0.599100
     21 O22         12.5650    18.5250    -5.3970 o          1 YJ5      -0.574100
     22 H1          12.1710    18.9270    -2.8170 ha         1 YJ5       0.124000
     23 H2          11.4480    18.0910    -0.6390 ha         1 YJ5       0.118500
     24 H3          10.8480    14.5660     0.0800 h1         1 YJ5       0.069200
     25 H4          12.3340    15.1410     0.7930 h1         1 YJ5       0.069200
     26 H5          10.2400    18.9070     2.2730 hc         1 YJ5       0.058200
     27 H6           9.5060    17.5690     3.1020 hc         1 YJ5       0.058200
     28 H7          12.1070    18.9370     3.9380 hc         1 YJ5       0.047200
     29 H8          10.5290    19.2340     4.6250 hc         1 YJ5       0.047200
     30 H9          12.0370    16.5830     4.7700 hc         1 YJ5       0.047200
     31 H10         11.9080    17.7640     6.0450 hc         1 YJ5       0.047200
     32 H11         10.2970    15.9500     6.4530 hc         1 YJ5       0.028700
     33 H12          9.4080    17.4300     6.1070 hc         1 YJ5       0.028700
     34 H13          9.5550    16.1770     4.8780 hc         1 YJ5       0.028700
     35 H14          8.9170    17.4840     0.9860 h1         1 YJ5       0.051700
     36 H15          9.1460    16.3430    -0.3040 h1         1 YJ5       0.051700
     37 H16          8.5190    15.5870     2.5910 hc         1 YJ5       0.046200
     38 H17          8.8310    14.4410     1.3040 hc         1 YJ5       0.046200
     39 H18          6.4450    14.6350     1.5930 hc         1 YJ5       0.042200
     40 H19          6.8700    15.2950     0.0330 hc         1 YJ5       0.042200
     41 H20          5.1790    16.7090     1.2480 hc         1 YJ5       0.033367
     42 H21          6.3400    16.9810     2.5430 hc         1 YJ5       0.033367
     43 H22          6.6420    17.6260     0.9320 hc         1 YJ5       0.033367
     44 H23         12.3560    14.0930    -1.8750 ha         1 YJ5       0.118500
     45 H24         13.0980    14.9210    -4.0440 ha         1 YJ5       0.124000
     46 H25         14.6990    16.2010    -5.0240 hn         1 YJ5       0.342500
     47 H26         15.2180    17.9910    -6.6240 ho         1 YJ5       0.437000
     48 C03         13.1260    17.5640    -4.8980 c          1 YJ5       0.620700
@<TRIPOS>BOND
     1     1     7 1   
     2     1    18 1   
     3     1    20 2   
     4     2     3 ar  
     5     2    16 ar  
     6     2    48 1   
     7     3     4 ar  
     8     3    22 1   
     9     4     5 ar  
    10     4    23 1   
    11     5     6 1   
    12     5    15 ar  
    13     6    18 1   
    14     6    24 1   
    15     6    25 1   
    16     7     8 1   
    17     7    26 1   
    18     7    27 1   
    19     8     9 1   
    20     8    28 1   
    21     8    29 1   
    22     9    10 1   
    23     9    30 1   
    24     9    31 1   
    25    10    32 1   
    26    10    33 1   
    27    10    34 1   
    28    11    12 1   
    29    11    18 1   
    30    11    35 1   
    31    11    36 1   
    32    12    13 1   
    33    12    37 1   
    34    12    38 1   
    35    13    14 1   
    36    13    39 1   
    37    13    40 1   
    38    14    41 1   
    39    14    42 1   
    40    14    43 1   
    41    15    16 ar  
    42    15    44 1   
    43    16    45 1   
    44    17    19 1   
    45    17    46 1   
    46    17    48 1   
    47    19    47 1   
    48    21    48 2   
@<TRIPOS>SUBSTRUCTURE
     1 YJ5         1 TEMP              0 ****  ****    0 ROOT
