@<TRIPOS>MOLECULE
YJ7
   39    42     1     0     0
SMALL
abcg2


@<TRIPOS>ATOM
      1 C21         19.2920   -68.1700   -42.9640 c          1 YJ7       0.551000
      2 C02         16.4960   -67.1000   -38.4310 ca         1 YJ7       0.216300
      3 C04         14.6980   -66.7730   -39.6880 ca         1 YJ7       0.309300
      4 C05         15.4220   -66.7460   -40.8770 ca         1 YJ7      -0.396900
      5 C06         14.4090   -66.7470   -41.9000 cc         1 YJ7       0.432900
      6 C07         14.5250   -66.8570   -43.3810 c3         1 YJ7      -0.122400
      7 C10         16.8230   -66.8460   -40.7180 ca         1 YJ7       0.466900
      8 C12         17.5340   -65.9330   -42.8740 ca         1 YJ7       0.204000
      9 C13         16.9320   -64.6850   -42.8340 ca         1 YJ7      -0.060000
     10 C14         16.7620   -63.9380   -43.9950 ca         1 YJ7      -0.204000
     11 C15         17.2310   -64.4410   -45.2100 ca         1 YJ7       0.162100
     12 C18         17.8980   -65.6680   -45.2490 ca         1 YJ7      -0.177000
     13 C19         18.0540   -66.4030   -44.0860 ca         1 YJ7      -0.004000
     14 C22         19.0150   -67.4200   -41.6690 c6         1 YJ7       0.154800
     15 N03         15.1670   -66.9150   -38.4620 nb         1 YJ7      -0.201000
     16 N08         13.2200   -66.7220   -41.3620 nd         1 YJ7      -0.299700
     17 N11         17.7210   -66.7520   -41.7400 nh         1 YJ7      -0.799100
     18 N20         18.7350   -67.6270   -44.0800 ns         1 YJ7      -0.143000
     19 N24         17.3150   -67.0670   -39.4890 nb         1 YJ7      -0.286000
     20 O09         13.3830   -66.7130   -39.9470 os         1 YJ7      -0.238300
     21 O16         17.1050   -63.8030   -46.4010 os         1 YJ7      -0.344100
     22 O23         19.9860   -69.1750   -42.9940 o          1 YJ7      -0.525000
     23 H1          18.1890   -67.4590   -37.1740 hc         1 YJ7       0.067367
     24 H2          16.8760   -66.5300   -36.4120 hc         1 YJ7       0.067367
     25 H3          16.6890   -68.2620   -36.6560 hc         1 YJ7       0.067367
     26 H4          13.5520   -67.1000   -43.8060 hc         1 YJ7       0.064700
     27 H5          14.8800   -65.9260   -43.8200 hc         1 YJ7       0.064700
     28 H6          15.2370   -67.6400   -43.6420 hc         1 YJ7       0.064700
     29 H7          16.5660   -64.2980   -41.8930 ha         1 YJ7       0.132000
     30 H8          16.2710   -62.9790   -43.9370 ha         1 YJ7       0.129000
     31 H9          16.4240   -62.2310   -47.4660 h1         1 YJ7       0.047033
     32 H10         15.3990   -62.6500   -46.0690 h1         1 YJ7       0.047033
     33 H11         16.9520   -61.8050   -45.8190 h1         1 YJ7       0.047033
     34 H12         18.2920   -66.0350   -46.1880 ha         1 YJ7       0.139000
     35 H13         19.0120   -68.1320   -40.8520 h1         1 YJ7       0.095700
     36 H14         19.8290   -66.7050   -41.5020 h1         1 YJ7       0.095700
     37 H15         18.9700   -68.0580   -44.9650 hn         1 YJ7       0.166000
     38 C01         17.1110   -67.3530   -37.0910 c3         1 YJ7      -0.138400
     39 C17         16.4260   -62.5460   -46.4260 c3         1 YJ7       0.147900
@<TRIPOS>BOND
     1     1    14 1   
     2     1    18 1   
     3     1    22 2   
     4     2    15 ar  
     5     2    19 ar  
     6     2    38 1   
     7     3     4 ar  
     8     3    15 ar  
     9     3    20 1   
    10     4     5 1   
    11     4     7 ar  
    12     5     6 1   
    13     5    16 2   
    14     6    26 1   
    15     6    27 1   
    16     6    28 1   
    17     7    17 1   
    18     7    19 ar  
    19     8     9 ar  
    20     8    13 ar  
    21     8    17 1   
    22     9    10 ar  
    23     9    29 1   
    24    10    11 ar  
    25    10    30 1   
    26    11    12 ar  
    27    11    21 1   
    28    12    13 ar  
    29    12    34 1   
    30    13    18 1   
    31    14    17 1   
    32    14    35 1   
    33    14    36 1   
    34    16    20 1   
    35    18    37 1   
    36    21    39 1   
    37    23    38 1   
    38    24    38 1   
    39    25    38 1   
    40    31    39 1   
    41    32    39 1   
    42    33    39 1   
@<TRIPOS>SUBSTRUCTURE
     1 YJ7         1 TEMP              0 ****  ****    0 ROOT
