@<TRIPOS>MOLECULE
YJ7
   39    42     1     0     0
SMALL
No Charge or Current Charge


@<TRIPOS>ATOM
      1 C21         19.1050   -68.4810   -43.3520 c          1 YJ7       0.551000
      2 C02         16.5630   -66.5910   -38.4680 ca         1 YJ7       0.216300
      3 C04         14.6260   -66.8760   -39.6150 ca         1 YJ7       0.309300
      4 C05         15.3220   -67.0140   -40.7700 ca         1 YJ7      -0.396900
      5 C06         14.3560   -67.2730   -41.7870 cc         1 YJ7       0.432900
      6 C07         14.6080   -67.5830   -43.2340 c3         1 YJ7      -0.122400
      7 C10         16.7100   -66.9140   -40.7460 ca         1 YJ7       0.466900
      8 C12         17.4750   -66.0630   -42.9510 ca         1 YJ7       0.204000
      9 C13         16.7660   -64.8480   -42.8280 ca         1 YJ7      -0.060000
     10 C14         16.7210   -63.9260   -43.8900 ca         1 YJ7      -0.204000
     11 C15         17.3940   -64.2040   -45.0970 ca         1 YJ7       0.162100
     12 C18         18.1130   -65.4010   -45.2260 ca         1 YJ7      -0.177000
     13 C19         18.1610   -66.3220   -44.1640 ca         1 YJ7      -0.004000
     14 C22         18.4970   -68.1590   -41.9610 c6         1 YJ7       0.154800
     15 N03         15.2110   -66.6590   -38.4270 nb         1 YJ7      -0.201000
     16 N08         13.1250   -67.2700   -41.2670 nd         1 YJ7      -0.299700
     17 N11         17.5100   -67.0160   -41.8910 nh         1 YJ7      -0.799100
     18 N20         18.9000   -67.5160   -44.3130 ns         1 YJ7      -0.143000
     19 N24         17.3430   -66.7100   -39.5720 nb         1 YJ7      -0.286000
     20 O09         13.2810   -67.0050   -39.8400 os         1 YJ7      -0.238300
     21 O16         17.3840   -63.3400   -46.1720 os         1 YJ7      -0.344100
     22 O23         19.7260   -69.5140   -43.5840 o          1 YJ7      -0.525000
     23 H1          18.3600   -66.2970   -37.2720 hc         1 YJ7       0.067367
     24 H2          16.9400   -65.4150   -36.6890 hc         1 YJ7       0.067367
     25 H3          17.0610   -67.1660   -36.4410 hc         1 YJ7       0.067367
     26 H4          13.7470   -68.0940   -43.6810 hc         1 YJ7       0.064700
     27 H5          14.7850   -66.6650   -43.8040 hc         1 YJ7       0.064700
     28 H6          15.4780   -68.2380   -43.3490 hc         1 YJ7       0.064700
     29 H7          16.2430   -64.6090   -41.9060 ha         1 YJ7       0.132000
     30 H8          16.1610   -63.0050   -43.7550 ha         1 YJ7       0.129000
     31 H9          16.7980   -61.5590   -47.0970 h1         1 YJ7       0.047033
     32 H10         15.6030   -62.2480   -45.9780 h1         1 YJ7       0.047033
     33 H11         17.0620   -61.4390   -45.3450 h1         1 YJ7       0.047033
     34 H12         18.6370   -65.6100   -46.1550 ha         1 YJ7       0.139000
     35 H13         18.0220   -69.0930   -41.6260 h1         1 YJ7       0.095700
     36 H14         19.3530   -67.9600   -41.3010 h1         1 YJ7       0.095700
     37 H15         19.3030   -67.6900   -45.2240 hn         1 YJ7       0.166000
     38 C01         17.2710   -66.3540   -37.1470 c3         1 YJ7      -0.138400
     39 C17         16.6760   -62.0870   -46.1430 c3         1 YJ7       0.147900
@<TRIPOS>BOND
     1     1    14 1   
     2     1    18 1   
     3     1    22 2   
     4     2    15 ar  
     5     2    19 ar  
     6     2    38 1   
     7     3     4 ar  
     8     3    15 ar  
     9     3    20 1   
    10     4     5 1   
    11     4     7 ar  
    12     5     6 1   
    13     5    16 2   
    14     6    26 1   
    15     6    27 1   
    16     6    28 1   
    17     7    17 1   
    18     7    19 ar  
    19     8     9 ar  
    20     8    13 ar  
    21     8    17 1   
    22     9    10 ar  
    23     9    29 1   
    24    10    11 ar  
    25    10    30 1   
    26    11    12 ar  
    27    11    21 1   
    28    12    13 ar  
    29    12    34 1   
    30    13    18 1   
    31    14    17 1   
    32    14    35 1   
    33    14    36 1   
    34    16    20 1   
    35    18    37 1   
    36    21    39 1   
    37    23    38 1   
    38    24    38 1   
    39    25    38 1   
    40    31    39 1   
    41    32    39 1   
    42    33    39 1   
@<TRIPOS>SUBSTRUCTURE
     1 YJ7         1 TEMP              0 ****  ****    0 ROOT
