@<TRIPOS>MOLECULE
YJ8
   60    64     1     0     0
SMALL
No Charge or Current Charge


@<TRIPOS>ATOM
      1 C1           1.7130    -1.5040    -0.7330 c5         1 YJ8       0.038700
      2 N2           0.5550    -1.3650     0.1980 n          1 YJ8      -0.389800
      3 C3           0.4080    -0.0030     0.7600 c5         1 YJ8       0.146000
      4 C4           1.7990     0.5850     0.4350 c5         1 YJ8      -0.310700
      5 C5           2.0920    -0.0100    -0.9690 c5         1 YJ8      -0.057400
      6 C6           2.9290    -2.2690    -0.1180 c          1 YJ8       0.603100
      7 O7           3.0750    -2.6260     1.0460 o          1 YJ8      -0.590100
      8 S8           1.7330     2.4350     0.4110 sy         1 YJ8       1.060500
      9 C9           3.3190     2.9950    -0.2500 ca         1 YJ8      -0.257500
     10 C10          4.5330     2.7730     0.4420 ca         1 YJ8       0.199000
     11 C11          5.7470     3.2100    -0.1150 ca         1 YJ8      -0.124000
     12 C12          5.7700     3.8660    -1.3550 ca         1 YJ8      -0.049000
     13 C13          4.5700     4.0840    -2.0480 ca         1 YJ8      -0.129000
     14 C14          3.3500     3.6510    -1.5030 ca         1 YJ8      -0.013000
     15 Cl           4.6110     1.9390     1.9950 cl         1 YJ8      -0.161000
     16 N16          3.8610    -2.5230    -1.1070 ns         1 YJ8      -0.457900
     17 C17          5.1300    -3.1830    -0.8850 cx         1 YJ8      -0.009900
     18 C18          5.0010    -4.6390    -0.5280 c2         1 YJ8       0.428200
     19 C19          6.2990    -2.7130    -1.7240 cx         1 YJ8      -0.112900
     20 C20          6.2310    -2.3530    -0.2610 cx         1 YJ8      -0.112900
     21 C21         -0.3200    -2.4400     0.4600 c          1 YJ8       0.641100
     22 O22         -0.1710    -3.5280    -0.0840 o          1 YJ8      -0.579100
     23 C23         -1.4620    -2.1760     1.4390 cx         1 YJ8      -0.176700
     24 C24         -2.5800    -1.3680     0.8310 ca         1 YJ8      -0.033300
     25 C25         -2.8970    -0.0790     1.3090 ca         1 YJ8      -0.107500
     26 C26         -3.9400     0.6590     0.7210 ca         1 YJ8      -0.077500
     27 C27         -4.6730     0.1130    -0.3440 ca         1 YJ8       0.198000
     28 C28         -4.3670    -1.1700    -0.8230 ca         1 YJ8      -0.077500
     29 C29         -3.3240    -1.9080    -0.2360 ca         1 YJ8      -0.107500
     30 I30         -6.2770     1.2520    -1.2490 i          1 YJ8      -0.313000
     31 C31         -1.8250    -3.3120     2.3820 cx         1 YJ8      -0.097900
     32 C32         -1.1140    -2.0970     2.9180 cx         1 YJ8      -0.097900
     33 O33          0.6840     2.8220    -0.5410 o          1 YJ8      -0.511000
     34 O34          1.6440     2.8680     1.8110 o          1 YJ8      -0.511000
     35 N35          4.7210    -5.5320    -1.4110 n2         1 YJ8      -0.710100
     36 H1           1.4260    -2.0010    -1.6700 h1         1 YJ8       0.084700
     37 H3          -0.4050     0.5330     0.2500 h1         1 YJ8       0.069700
     38 H3A          0.2100     0.0000     1.8400 h1         1 YJ8       0.069700
     39 H4           2.5470     0.2910     1.1790 h1         1 YJ8       0.129700
     40 H5           3.1300     0.1360    -1.2930 hc         1 YJ8       0.070700
     41 H5A          1.4490     0.4310    -1.7420 hc         1 YJ8       0.070700
     42 H11          6.6770     3.0360     0.4200 ha         1 YJ8       0.135000
     43 H12          6.7140     4.2010    -1.7790 ha         1 YJ8       0.124000
     44 H13          4.5840     4.5900    -3.0120 ha         1 YJ8       0.127000
     45 H14          2.4340     3.8310    -2.0640 ha         1 YJ8       0.149000
     46 HN16         3.6250    -2.2140    -2.0430 hn         1 YJ8       0.323500
     47 H19          7.0360    -3.4520    -2.0290 hc         1 YJ8       0.080450
     48 H19A         6.1260    -1.9200    -2.4480 hc         1 YJ8       0.080450
     49 H20          6.0070    -1.3210    -0.0010 hc         1 YJ8       0.080450
     50 H20A         6.9230    -2.8500     0.4150 hc         1 YJ8       0.080450
     51 H25         -2.3370     0.3590     2.1310 ha         1 YJ8       0.122500
     52 H26         -4.1800     1.6530     1.0890 ha         1 YJ8       0.129000
     53 H28         -4.9380    -1.5900    -1.6470 ha         1 YJ8       0.129000
     54 H29         -3.0940    -2.9030    -0.6120 ha         1 YJ8       0.122500
     55 H31         -2.8730    -3.4390     2.6450 hc         1 YJ8       0.085950
     56 H31A        -1.2600    -4.2390     2.3210 hc         1 YJ8       0.085950
     57 H32         -0.0710    -2.2100     3.2040 hc         1 YJ8       0.085950
     58 H32A        -1.6860    -1.4300     3.5580 hc         1 YJ8       0.085950
     59 H35          4.6810    -6.4540    -0.9530 hn         1 YJ8       0.377400
     60 H18          5.1530    -4.9230     0.5100 h4         1 YJ8      -0.039200
@<TRIPOS>BOND
     1     1     2 1   
     2     1     5 1   
     3     1     6 1   
     4     1    36 1   
     5     2     3 1   
     6     2    21 1   
     7     3     4 1   
     8     3    37 1   
     9     3    38 1   
    10     4     5 1   
    11     4     8 1   
    12     4    39 1   
    13     5    40 1   
    14     5    41 1   
    15     6     7 2   
    16     6    16 1   
    17     8     9 1   
    18     8    33 2   
    19     8    34 2   
    20     9    10 ar  
    21     9    14 ar  
    22    10    11 ar  
    23    10    15 1   
    24    11    12 ar  
    25    11    42 1   
    26    12    13 ar  
    27    12    43 1   
    28    13    14 ar  
    29    13    44 1   
    30    14    45 1   
    31    16    17 1   
    32    16    46 1   
    33    17    18 1   
    34    17    19 1   
    35    17    20 1   
    36    18    35 2   
    37    18    60 1   
    38    19    20 1   
    39    19    47 1   
    40    19    48 1   
    41    20    49 1   
    42    20    50 1   
    43    21    22 2   
    44    21    23 1   
    45    23    24 1   
    46    23    31 1   
    47    23    32 1   
    48    24    25 ar  
    49    24    29 ar  
    50    25    26 ar  
    51    25    51 1   
    52    26    27 ar  
    53    26    52 1   
    54    27    28 ar  
    55    27    30 1   
    56    28    29 ar  
    57    28    53 1   
    58    29    54 1   
    59    31    32 1   
    60    31    55 1   
    61    31    56 1   
    62    32    57 1   
    63    32    58 1   
    64    35    59 1   
@<TRIPOS>SUBSTRUCTURE
     1 YJ8         1 TEMP              0 ****  ****    0 ROOT
