@<TRIPOS>MOLECULE
YJ8
   60    64     1     0     0
SMALL
bcc


@<TRIPOS>ATOM
      1 C1           1.7360    -1.3960    -1.0420 c5         1 YJ8       0.038700
      2 N2           0.5830    -1.3120    -0.1720 n          1 YJ8      -0.456800
      3 C3           0.4310    -0.0130     0.4660 c5         1 YJ8       0.146000
      4 C4           1.7260     0.7000     0.0740 c5         1 YJ8      -0.199900
      5 C5           2.1180     0.0720    -1.2560 c5         1 YJ8      -0.057400
      6 C6           2.8780    -2.1330    -0.3420 c          1 YJ8       0.670100
      7 O7           3.0420    -2.0460     0.8610 o          1 YJ8      -0.590100
      8 S8           1.4600     2.4710    -0.0180 sy         1 YJ8       1.091300
      9 C9           3.0750     3.1210    -0.4030 ca         1 YJ8      -0.257500
     10 C10          4.1230     3.1350     0.5170 ca         1 YJ8       0.107400
     11 C11          5.3500     3.6700     0.1620 ca         1 YJ8      -0.142000
     12 C12          5.5320     4.1950    -1.1090 ca         1 YJ8      -0.067000
     13 C13          4.4950     4.1810    -2.0290 ca         1 YJ8      -0.147000
     14 C14          3.2680     3.6430    -1.6770 ca         1 YJ8      -0.031000
     15 CL           3.9600     2.4780     2.1050 cl         1 YJ8      -0.069400
     16 N16          3.7250    -2.7630    -1.1740 ns         1 YJ8      -0.524900
     17 C17          4.8850    -3.4350    -0.7070 cx         1 YJ8      -0.009900
     18 C18          4.6890    -4.7780    -0.1200 c2         1 YJ8       0.428200
     19 C19          6.1610    -3.2180    -1.4850 cx         1 YJ8      -0.112900
     20 C20          6.0050    -2.5980    -0.1440 cx         1 YJ8      -0.112900
     21 C21         -0.0420    -2.4510     0.1980 c          1 YJ8       0.708100
     22 O22          0.2900    -3.5260    -0.2730 o          1 YJ8      -0.579100
     23 C23         -1.1360    -2.3080     1.2250 cx         1 YJ8      -0.176700
     24 C24         -2.2400    -1.3650     0.8690 ca         1 YJ8      -0.033300
     25 C25         -2.7150    -0.3940     1.7440 ca         1 YJ8      -0.125500
     26 C26         -3.7520     0.4550     1.3810 ca         1 YJ8      -0.095500
     27 C27         -4.3160     0.3360     0.1210 ca         1 YJ8       0.060900
     28 C28         -3.8590    -0.6210    -0.7740 ca         1 YJ8      -0.095500
     29 C29         -2.8290    -1.4650    -0.3910 ca         1 YJ8      -0.125500
     30 I30         -5.8810     1.6230    -0.4440 i          1 YJ8      -0.175900
     31 C31         -1.4810    -3.5510     1.9940 cx         1 YJ8      -0.097900
     32 C32         -0.6760    -2.4830     2.6500 cx         1 YJ8      -0.097900
     33 O33          0.5980     2.7470    -1.1650 o          1 YJ8      -0.581800
     34 O34          1.0350     2.9420     1.2930 o          1 YJ8      -0.581800
     35 N35          3.5600    -5.3410    -0.0850 n2         1 YJ8      -0.710100
     36 H1           1.4840    -1.8740    -1.9910 h1         1 YJ8       0.084700
     37 H3          -0.4530     0.5040     0.0830 h1         1 YJ8       0.069700
     38 H3A          0.3360    -0.1000     1.5470 h1         1 YJ8       0.069700
     39 H4           2.4910     0.5360     0.8330 h1         1 YJ8       0.129700
     40 H5           3.1710     0.2050    -1.5030 hc         1 YJ8       0.070700
     41 H5A          1.5240     0.4820    -2.0730 hc         1 YJ8       0.070700
     42 H11          6.1610     3.6760     0.8760 ha         1 YJ8       0.153000
     43 H12          6.4920     4.6120    -1.3770 ha         1 YJ8       0.142000
     44 H13          4.6360     4.5880    -3.0210 ha         1 YJ8       0.145000
     45 H14          2.4600     3.6290    -2.3940 ha         1 YJ8       0.167000
     46 HN16         3.4450    -2.9110    -2.1310 hn         1 YJ8       0.323500
     47 H19          6.8280    -4.0640    -1.5980 hc         1 YJ8       0.080450
     48 H19A         6.0920    -2.5800    -2.3570 hc         1 YJ8       0.080450
     49 H20          5.8330    -1.5320    -0.0900 hc         1 YJ8       0.080450
     50 H20A         6.5640    -3.0040     0.6890 hc         1 YJ8       0.080450
     51 H25         -2.2720    -0.2700     2.7230 ha         1 YJ8       0.140500
     52 H26         -4.0990     1.2000     2.0830 ha         1 YJ8       0.147000
     53 H28         -4.2920    -0.7230    -1.7600 ha         1 YJ8       0.147000
     54 H29         -2.4860    -2.2160    -1.0930 ha         1 YJ8       0.140500
     55 H31         -2.5140    -3.6630     2.2940 hc         1 YJ8       0.085950
     56 H31A        -0.9920    -4.4730     1.7070 hc         1 YJ8       0.085950
     57 H32          0.3820    -2.6610     2.8030 hc         1 YJ8       0.085950
     58 H32A        -1.1360    -1.8810     3.4220 hc         1 YJ8       0.085950
     59 H35          3.6420    -6.2550     0.3520 hn         1 YJ8       0.377400
     60 H18          5.6070    -5.2320     0.2660 h4         1 YJ8      -0.039200
@<TRIPOS>BOND
     1     1     2 1   
     2     1     5 1   
     3     1     6 1   
     4     1    36 1   
     5     2     3 1   
     6     2    21 1   
     7     3     4 1   
     8     3    37 1   
     9     3    38 1   
    10     4     5 1   
    11     4     8 1   
    12     4    39 1   
    13     5    40 1   
    14     5    41 1   
    15     6     7 2   
    16     6    16 1   
    17     8     9 1   
    18     8    33 2   
    19     8    34 2   
    20     9    10 ar  
    21     9    14 ar  
    22    10    11 ar  
    23    10    15 1   
    24    11    12 ar  
    25    11    42 1   
    26    12    13 ar  
    27    12    43 1   
    28    13    14 ar  
    29    13    44 1   
    30    14    45 1   
    31    16    17 1   
    32    16    46 1   
    33    17    18 1   
    34    17    19 1   
    35    17    20 1   
    36    18    35 2   
    37    18    60 1   
    38    19    20 1   
    39    19    47 1   
    40    19    48 1   
    41    20    49 1   
    42    20    50 1   
    43    21    22 2   
    44    21    23 1   
    45    23    24 1   
    46    23    31 1   
    47    23    32 1   
    48    24    25 ar  
    49    24    29 ar  
    50    25    26 ar  
    51    25    51 1   
    52    26    27 ar  
    53    26    52 1   
    54    27    28 ar  
    55    27    30 1   
    56    28    29 ar  
    57    28    53 1   
    58    29    54 1   
    59    31    32 1   
    60    31    55 1   
    61    31    56 1   
    62    32    57 1   
    63    32    58 1   
    64    35    59 1   
@<TRIPOS>SUBSTRUCTURE
     1 YJ8         1 TEMP              0 ****  ****    0 ROOT
