@<TRIPOS>MOLECULE
YJ9
   63    67     1     0     0
SMALL
No Charge or Current Charge


@<TRIPOS>ATOM
      1 C1          -0.7630     1.6430    -0.5270 c5         1 YJ9       0.035700
      2 C2          -1.8070     2.5320     0.2220 c          1 YJ9       0.604100
      3 N3          -2.6770     3.0910    -0.6950 ns         1 YJ9      -0.460900
      4 C4          -3.7950     3.9420    -0.3490 cx         1 YJ9      -0.008900
      5 C5          -3.3880     5.2840     0.1980 c2         1 YJ9       0.429200
      6 O6          -1.8770     2.7470     1.4270 o          1 YJ9      -0.589100
      7 C7          -5.0350     3.8220    -1.2080 cx         1 YJ9      -0.113400
      8 C8          -5.0320     3.2570     0.1900 cx         1 YJ9      -0.113400
      9 N9          -2.9480     6.2220    -0.5640 n2         1 YJ9      -0.710100
     10 N10          0.3500     1.1580     0.3430 n          1 YJ9      -0.388800
     11 C11          0.2360    -0.2720     0.7080 c5         1 YJ9       0.146000
     12 C12         -1.2440    -0.5340     0.3490 c5         1 YJ9      -0.311700
     13 C13         -1.4220     0.2950    -0.9520 c5         1 YJ9      -0.058400
     14 S14         -1.5350    -2.3410     0.0720 sy         1 YJ9       1.060500
     15 C15         -3.2030    -2.4930    -0.6060 ca         1 YJ9      -0.257500
     16 C16         -4.3470    -2.1440     0.1500 ca         1 YJ9       0.199000
     17 C17         -5.6260    -2.2610    -0.4200 ca         1 YJ9      -0.124000
     18 C18         -5.7830    -2.7200    -1.7370 ca         1 YJ9      -0.049000
     19 C19         -4.6520    -3.0620    -2.4930 ca         1 YJ9      -0.128000
     20 C20         -3.3670    -2.9490    -1.9350 ca         1 YJ9      -0.013000
     21 Cl          -4.2530    -1.5360     1.8030 cl         1 YJ9      -0.161000
     22 O22         -0.5860    -2.7840    -0.9580 o          1 YJ9      -0.510000
     23 O23         -1.5220    -2.9740     1.3970 o          1 YJ9      -0.510000
     24 C24          1.4150     2.0010     0.7230 c          1 YJ9       0.642100
     25 O25          1.4770     3.1620     0.3370 o          1 YJ9      -0.578100
     26 C26          3.0600     2.2990     2.7040 cx         1 YJ9      -0.095900
     27 C27          2.4860     1.3940     1.6260 cx         1 YJ9      -0.182700
     28 C28          2.1310     1.1790     3.0890 cx         1 YJ9      -0.095900
     29 C29          5.1390     0.1770    -0.8340 ca         1 YJ9      -0.057500
     30 C30          5.1980    -1.2050    -0.5570 ca         1 YJ9      -0.196300
     31 C31          4.3720    -1.7320     0.4580 ca         1 YJ9      -0.057500
     32 C32          3.4950    -0.8960     1.1700 ca         1 YJ9      -0.113500
     33 C33          3.4270     0.4810     0.8820 ca         1 YJ9      -0.015300
     34 C34          4.2590     1.0090    -0.1200 ca         1 YJ9      -0.113500
     35 F36          7.3630    -2.1920    -0.7090 f          1 YJ9      -0.113333
     36 F37          5.6960    -3.3790    -1.4430 f          1 YJ9      -0.113333
     37 F38          6.3940    -1.6730    -2.5850 f          1 YJ9      -0.113333
     38 H1          -0.3880     2.2020    -1.3950 h1         1 YJ9       0.086700
     39 HN3         -2.5080     2.8750    -1.6710 hn         1 YJ9       0.323500
     40 H7          -5.6180     4.7220    -1.3890 hc         1 YJ9       0.080700
     41 H7A         -5.0200     3.1190    -2.0380 hc         1 YJ9       0.080700
     42 H8          -5.0100     2.1760     0.3010 hc         1 YJ9       0.080700
     43 H8A         -5.6140     3.7780     0.9470 hc         1 YJ9       0.080700
     44 H11          0.9280    -0.8740     0.1040 h1         1 YJ9       0.068700
     45 H11A         0.4340    -0.4640     1.7710 h1         1 YJ9       0.068700
     46 H12         -1.9180    -0.2090     1.1480 h1         1 YJ9       0.127700
     47 H13         -2.4700     0.3950    -1.2610 hc         1 YJ9       0.071200
     48 H13A        -0.8780    -0.1480    -1.7960 hc         1 YJ9       0.071200
     49 H17         -6.5020    -1.9900     0.1640 ha         1 YJ9       0.136000
     50 H18         -6.7770    -2.8070    -2.1710 ha         1 YJ9       0.124000
     51 H19         -4.7690    -3.4160    -3.5150 ha         1 YJ9       0.127000
     52 H20         -2.5070    -3.2190    -2.5460 ha         1 YJ9       0.149000
     53 H26          4.1130     2.1880     2.9530 hc         1 YJ9       0.086950
     54 H26A         2.6840     3.3160     2.7840 hc         1 YJ9       0.086950
     55 H28          2.5650     0.3330     3.6170 hc         1 YJ9       0.086950
     56 H28A         1.1280     1.4460     3.4170 hc         1 YJ9       0.086950
     57 H29          5.7750     0.6150    -1.6000 ha         1 YJ9       0.131500
     58 H31          4.4070    -2.7920     0.7040 ha         1 YJ9       0.131500
     59 H32          2.8650    -1.3280     1.9430 ha         1 YJ9       0.125500
     60 H34          4.2260     2.0720    -0.3480 ha         1 YJ9       0.125500
     61 H5          -3.4780     5.4450     1.2690 h4         1 YJ9      -0.038200
     62 H9          -2.7300     7.0470     0.0130 hn         1 YJ9       0.377400
     63 C35          6.1630    -2.1150    -1.3270 c3         1 YJ9       0.357300
@<TRIPOS>BOND
     1     1     2 1   
     2     1    10 1   
     3     1    13 1   
     4     1    38 1   
     5     2     3 1   
     6     2     6 2   
     7     3     4 1   
     8     3    39 1   
     9     4     5 1   
    10     4     7 1   
    11     4     8 1   
    12     5     9 2   
    13     5    61 1   
    14     7     8 1   
    15     7    40 1   
    16     7    41 1   
    17     8    42 1   
    18     8    43 1   
    19     9    62 1   
    20    10    11 1   
    21    10    24 1   
    22    11    12 1   
    23    11    44 1   
    24    11    45 1   
    25    12    13 1   
    26    12    14 1   
    27    12    46 1   
    28    13    47 1   
    29    13    48 1   
    30    14    15 1   
    31    14    22 2   
    32    14    23 2   
    33    15    16 ar  
    34    15    20 ar  
    35    16    17 ar  
    36    16    21 1   
    37    17    18 ar  
    38    17    49 1   
    39    18    19 ar  
    40    18    50 1   
    41    19    20 ar  
    42    19    51 1   
    43    20    52 1   
    44    24    25 2   
    45    24    27 1   
    46    26    27 1   
    47    26    28 1   
    48    26    53 1   
    49    26    54 1   
    50    27    28 1   
    51    27    33 1   
    52    28    55 1   
    53    28    56 1   
    54    29    30 ar  
    55    29    34 ar  
    56    29    57 1   
    57    30    31 ar  
    58    30    63 1   
    59    31    32 ar  
    60    31    58 1   
    61    32    33 ar  
    62    32    59 1   
    63    33    34 ar  
    64    34    60 1   
    65    35    63 1   
    66    36    63 1   
    67    37    63 1   
@<TRIPOS>SUBSTRUCTURE
     1 YJ9         1 TEMP              0 ****  ****    0 ROOT
