@<TRIPOS>MOLECULE
YJ9
   63    67     1     0     0
SMALL
abcg2


@<TRIPOS>ATOM
      1 C1          -0.7670     1.6590    -0.8420 c5         1 YJ9       0.035700
      2 C2          -1.7460     2.4630     0.0170 c          1 YJ9       0.604100
      3 N3          -2.5320     3.2990    -0.6820 ns         1 YJ9      -0.460900
      4 C4          -3.5760     4.0470    -0.0760 cx         1 YJ9      -0.008900
      5 C5          -3.1870     5.2840     0.6330 c2         1 YJ9       0.429200
      6 O6          -1.8550     2.2580     1.2110 o          1 YJ9      -0.589100
      7 C7          -4.9040     4.0660    -0.7950 cx         1 YJ9      -0.113400
      8 C8          -4.7620     3.2900     0.4640 cx         1 YJ9      -0.113400
      9 N9          -1.9920     5.6890     0.6790 n2         1 YJ9      -0.710100
     10 N10          0.3610     1.2240    -0.0480 n          1 YJ9      -0.388800
     11 C11          0.2610    -0.1620     0.3850 c5         1 YJ9       0.146000
     12 C12         -1.1470    -0.5540    -0.0710 c5         1 YJ9      -0.311700
     13 C13         -1.4190     0.3410    -1.2730 c5         1 YJ9      -0.058400
     14 S14         -1.2120    -2.3050    -0.4520 sy         1 YJ9       1.060500
     15 C15         -2.9240    -2.5820    -0.8670 ca         1 YJ9      -0.257500
     16 C16         -3.9460    -2.5600     0.0820 ca         1 YJ9       0.199000
     17 C17         -5.2550    -2.7960    -0.3040 ca         1 YJ9      -0.124000
     18 C18         -5.5460    -3.0570    -1.6340 ca         1 YJ9      -0.049000
     19 C19         -4.5350    -3.0770    -2.5830 ca         1 YJ9      -0.128000
     20 C20         -3.2260    -2.8390    -2.1990 ca         1 YJ9      -0.013000
     21 CL          -3.6450    -2.2200     1.7480 cl         1 YJ9      -0.161000
     22 O22         -0.4270    -2.5420    -1.6600 o          1 YJ9      -0.510000
     23 O23         -0.8700    -3.0530     0.7510 o          1 YJ9      -0.510000
     24 C24          1.1970     2.1540     0.4610 c          1 YJ9       0.642100
     25 O25          1.0710     3.3320     0.1730 o          1 YJ9      -0.578100
     26 C26          2.8650     2.6760     2.3200 cx         1 YJ9      -0.095900
     27 C27          2.2590     1.6490     1.4040 cx         1 YJ9      -0.182700
     28 C28          1.8700     1.7080     2.8610 cx         1 YJ9      -0.095900
     29 C29          4.4860    -0.2610    -0.9670 ca         1 YJ9      -0.057500
     30 C30          4.8210    -1.3830    -0.2220 ca         1 YJ9      -0.196300
     31 C31          4.3190    -1.5280     1.0660 ca         1 YJ9      -0.057500
     32 C32          3.4850    -0.5600     1.6010 ca         1 YJ9      -0.113500
     33 C33          3.1440     0.5730     0.8680 ca         1 YJ9      -0.015300
     34 C34          3.6590     0.7070    -0.4200 ca         1 YJ9      -0.113500
     35 F36          6.7440    -2.7120     0.0200 f          1 YJ9      -0.113333
     36 F37          5.0340    -3.6190    -0.9090 f          1 YJ9      -0.113333
     37 F38          6.1880    -2.1540    -1.9830 f          1 YJ9      -0.113333
     38 H1          -0.4450     2.2340    -1.7120 h1         1 YJ9       0.086700
     39 HN3         -2.2940     3.5050    -1.6390 hn         1 YJ9       0.323500
     40 H7          -5.4670     4.9910    -0.7830 hc         1 YJ9       0.080700
     41 H7A         -4.9510     3.5220    -1.7290 hc         1 YJ9       0.080700
     42 H8          -4.7180     2.2120     0.3980 hc         1 YJ9       0.080700
     43 H8A         -5.2290     3.6640     1.3660 hc         1 YJ9       0.080700
     44 H11          1.0270    -0.7740    -0.0980 h1         1 YJ9       0.068700
     45 H11A         0.3700    -0.2640     1.4640 h1         1 YJ9       0.068700
     46 H12         -1.8680    -0.3830     0.7290 h1         1 YJ9       0.127700
     47 H13         -2.4770     0.4490    -1.5040 hc         1 YJ9       0.071200
     48 H13A        -0.9120    -0.0360    -2.1620 hc         1 YJ9       0.071200
     49 H17         -6.0440    -2.7750     0.4350 ha         1 YJ9       0.136000
     50 H18         -6.5710    -3.2400    -1.9250 ha         1 YJ9       0.124000
     51 H19         -4.7620    -3.2760    -3.6210 ha         1 YJ9       0.127000
     52 H20         -2.4390    -2.8490    -2.9390 ha         1 YJ9       0.149000
     53 H26          3.9040     2.5330     2.5840 hc         1 YJ9       0.086950
     54 H26A         2.5710     3.7080     2.1860 hc         1 YJ9       0.086950
     55 H28          2.2110     0.9240     3.5240 hc         1 YJ9       0.086950
     56 H28A         0.8730     2.0680     3.0840 hc         1 YJ9       0.086950
     57 H29          4.8610    -0.1200    -1.9710 ha         1 YJ9       0.131500
     58 H31          4.5630    -2.3970     1.6650 ha         1 YJ9       0.131500
     59 H32          3.0920    -0.7130     2.5960 ha         1 YJ9       0.125500
     60 H34          3.4190     1.5810    -1.0140 ha         1 YJ9       0.125500
     61 H5          -4.0240     5.8080     1.1040 h4         1 YJ9      -0.038200
     62 H9          -1.9400     6.5520     1.2120 hn         1 YJ9       0.377400
     63 C35          5.6970    -2.4590    -0.7780 c3         1 YJ9       0.357300
@<TRIPOS>BOND
     1     1     2 1   
     2     1    10 1   
     3     1    13 1   
     4     1    38 1   
     5     2     3 1   
     6     2     6 2   
     7     3     4 1   
     8     3    39 1   
     9     4     5 1   
    10     4     7 1   
    11     4     8 1   
    12     5     9 2   
    13     5    61 1   
    14     7     8 1   
    15     7    40 1   
    16     7    41 1   
    17     8    42 1   
    18     8    43 1   
    19     9    62 1   
    20    10    11 1   
    21    10    24 1   
    22    11    12 1   
    23    11    44 1   
    24    11    45 1   
    25    12    13 1   
    26    12    14 1   
    27    12    46 1   
    28    13    47 1   
    29    13    48 1   
    30    14    15 1   
    31    14    22 2   
    32    14    23 2   
    33    15    16 ar  
    34    15    20 ar  
    35    16    17 ar  
    36    16    21 1   
    37    17    18 ar  
    38    17    49 1   
    39    18    19 ar  
    40    18    50 1   
    41    19    20 ar  
    42    19    51 1   
    43    20    52 1   
    44    24    25 2   
    45    24    27 1   
    46    26    27 1   
    47    26    28 1   
    48    26    53 1   
    49    26    54 1   
    50    27    28 1   
    51    27    33 1   
    52    28    55 1   
    53    28    56 1   
    54    29    30 ar  
    55    29    34 ar  
    56    29    57 1   
    57    30    31 ar  
    58    30    63 1   
    59    31    32 ar  
    60    31    58 1   
    61    32    33 ar  
    62    32    59 1   
    63    33    34 ar  
    64    34    60 1   
    65    35    63 1   
    66    36    63 1   
    67    37    63 1   
@<TRIPOS>SUBSTRUCTURE
     1 YJ9         1 TEMP              0 ****  ****    0 ROOT
