@<TRIPOS>MOLECULE
YJA
   67    70     1     0     0
SMALL
abcg2


@<TRIPOS>ATOM
      1 CAK         -8.5120    -1.0570    -1.2900 ca         1 YJA      -0.181000
      2 CBC         -9.5410    -1.4540    -2.1230 ca         1 YJA       0.199000
      3 FAD         -9.3310    -2.5280    -2.9020 f          1 YJA      -0.178000
      4 CAG        -10.7590    -0.8100    -2.1950 ca         1 YJA      -0.184000
      5 CAE        -10.9420     0.2960    -1.3760 ca         1 YJA      -0.055000
      6 CAH         -9.9410     0.7290    -0.5260 ca         1 YJA      -0.191000
      7 CBD         -8.7160     0.0550    -0.4730 ca         1 YJA       0.013000
      8 NAX         -7.7620     0.5520     0.4130 ns         1 YJA      -0.153000
      9 CBB         -6.5270     0.0700     0.7150 c          1 YJA       0.610100
     10 OAB         -6.0240    -0.9010     0.1880 o          1 YJA      -0.553100
     11 CAT         -5.8380     0.8600     1.8150 c3         1 YJA      -0.186700
     12 CBE         -4.4000     0.5110     1.9570 cc         1 YJA       0.271300
     13 CAL         -3.3380     0.9140     1.1240 cc         1 YJA      -0.201000
     14 NAZ         -3.9840    -0.2550     2.9430 nd         1 YJA      -0.507800
     15 NAW         -2.6670    -0.3640     2.7640 na         1 YJA      -0.043200
     16 CBG         -2.2270     0.3200     1.6880 cd         1 YJA       0.237000
     17 NAY         -0.8810     0.2980     1.3840 nu         1 YJA      -0.924900
     18 C6          -0.2730     0.9130     0.3420 ca         1 YJA       0.416900
     19 N1          -1.0030     1.6250    -0.4850 nb         1 YJA      -0.266000
     20 C2          -0.3710     2.2170    -1.5120 ca         1 YJA       0.173900
     21 N3           0.8940     2.1760    -1.8030 nb         1 YJA      -0.201000
     22 C4           1.6810     1.4470    -0.9620 ca         1 YJA       0.085000
     23 CAM          3.0530     1.3630    -1.2260 ca         1 YJA      -0.150000
     24 C5           1.1420     0.7770     0.1600 ca         1 YJA      -0.206000
     25 CAJ          2.0070     0.0460     0.9900 ca         1 YJA      -0.038000
     26 CAI          3.3500    -0.0320     0.7240 ca         1 YJA      -0.197000
     27 CBF          3.8850     0.6320    -0.4010 ca         1 YJA       0.179100
     28 OBA          5.1820     0.6010    -0.7280 os         1 YJA      -0.341100
     29 CAQ          6.0870    -0.1760     0.0480 c3         1 YJA       0.165600
     30 CAP          7.4580    -0.0580    -0.5850 c3         1 YJA      -0.086400
     31 CAS          8.4580    -0.9450     0.1470 c3         1 YJA       0.175800
     32 NBK          9.8390    -0.6890    -0.2200 n3         1 YJA      -0.707600
     33 CAO         10.1030    -0.7990    -1.6460 c3         1 YJA       0.162800
     34 CAA          9.8980    -2.1770    -2.2720 c3         1 YJA      -0.129100
     35 CAR         10.7240    -1.4770     0.6190 c3         1 YJA       0.174800
     36 CAN         12.2020    -1.2220     0.4080 c3         1 YJA       0.163600
     37 OAC         12.4810     0.1480     0.5900 oh         1 YJA      -0.642000
     38 HAK         -7.5840    -1.6060    -1.2870 ha         1 YJA       0.166000
     39 HAG        -11.5360    -1.1570    -2.8630 ha         1 YJA       0.133000
     40 HAE        -11.8830     0.8300    -1.4010 ha         1 YJA       0.116000
     41 HAH        -10.1060     1.5940     0.1040 ha         1 YJA       0.112000
     42 HAX         -8.0530     1.3720     0.9260 hn         1 YJA       0.149000
     43 HAT1        -5.9600     1.9300     1.6300 hc         1 YJA       0.073700
     44 HAT2        -6.3610     0.6480     2.7520 hc         1 YJA       0.073700
     45 HAL         -3.3800     1.5400     0.2530 ha         1 YJA       0.173000
     46 HAW         -2.1170    -0.9010     3.4160 hn         1 YJA       0.367000
     47 HAY         -0.3050    -0.2480     2.0040 hn         1 YJA       0.499000
     48 H2          -1.0090     2.7950    -2.1720 h5         1 YJA       0.048100
     49 HAM          3.4530     1.8770    -2.0920 ha         1 YJA       0.152000
     50 HAJ          1.6440    -0.4770     1.8660 ha         1 YJA       0.101000
     51 HAI          3.9790    -0.6070     1.3880 ha         1 YJA       0.121000
     52 HAQ1         6.1110     0.1870     1.0810 h1         1 YJA       0.035700
     53 HAQ2         5.7630    -1.2230     0.0680 h1         1 YJA       0.035700
     54 HAP1         7.3850    -0.3440    -1.6370 hc         1 YJA       0.066700
     55 HAP2         7.7950     0.9810    -0.5470 hc         1 YJA       0.066700
     56 HAS1         8.3700    -0.7570     1.2220 h1         1 YJA       0.026700
     57 HAS2         8.1720    -2.0010     0.0030 h1         1 YJA       0.026700
     58 HAO1         9.4720    -0.0740    -2.1630 h1         1 YJA       0.055200
     59 HAO2        11.1250    -0.4640    -1.8340 h1         1 YJA       0.055200
     60 HAR1        10.4780    -1.2500     1.6610 h1         1 YJA       0.034200
     61 HAR2        10.5680    -2.5630     0.5050 h1         1 YJA       0.034200
     62 HAA1         8.8660    -2.5200    -2.1750 hc         1 YJA       0.035033
     63 HAA2        10.1340    -2.1430    -3.3360 hc         1 YJA       0.035033
     64 HAA3        10.5410    -2.9320    -1.8170 hc         1 YJA       0.035033
     65 HAN1        12.7400    -1.8470     1.1310 h1         1 YJA       0.016200
     66 HAN2        12.5140    -1.5670    -0.5860 h1         1 YJA       0.016200
     67 HAC         13.4290     0.2730     0.4860 ho         1 YJA       0.436000
@<TRIPOS>BOND
     1     1     2 ar  
     2     1     7 ar  
     3     1    38 1   
     4     2     3 1   
     5     2     4 ar  
     6     4     5 ar  
     7     4    39 1   
     8     5     6 ar  
     9     5    40 1   
    10     6     7 ar  
    11     6    41 1   
    12     7     8 1   
    13     8     9 1   
    14     8    42 1   
    15     9    10 2   
    16     9    11 1   
    17    11    12 1   
    18    11    43 1   
    19    11    44 1   
    20    12    13 1   
    21    12    14 2   
    22    13    16 2   
    23    13    45 1   
    24    14    15 1   
    25    15    16 1   
    26    15    46 1   
    27    16    17 1   
    28    17    18 1   
    29    17    47 1   
    30    18    19 ar  
    31    18    24 ar  
    32    19    20 ar  
    33    20    21 ar  
    34    20    48 1   
    35    21    22 ar  
    36    22    23 ar  
    37    22    24 ar  
    38    23    27 ar  
    39    23    49 1   
    40    24    25 ar  
    41    25    26 ar  
    42    25    50 1   
    43    26    27 ar  
    44    26    51 1   
    45    27    28 1   
    46    28    29 1   
    47    29    30 1   
    48    29    52 1   
    49    29    53 1   
    50    30    31 1   
    51    30    54 1   
    52    30    55 1   
    53    31    32 1   
    54    31    56 1   
    55    31    57 1   
    56    32    33 1   
    57    32    35 1   
    58    33    34 1   
    59    33    58 1   
    60    33    59 1   
    61    34    62 1   
    62    34    63 1   
    63    34    64 1   
    64    35    36 1   
    65    35    60 1   
    66    35    61 1   
    67    36    37 1   
    68    36    65 1   
    69    36    66 1   
    70    37    67 1   
@<TRIPOS>SUBSTRUCTURE
     1 YJA         1 TEMP              0 ****  ****    0 ROOT
