@<TRIPOS>MOLECULE
YJA
   67    70     1     0     0
SMALL
No Charge or Current Charge


@<TRIPOS>ATOM
      1 CAK         -8.1160    -0.8200    -1.0970 ca         1 YJA      -0.181000
      2 CBC         -8.6540    -0.9640    -2.3850 ca         1 YJA       0.199000
      3 FAD         -9.1920    -2.1460    -2.7570 f          1 YJA      -0.178000
      4 CAG         -8.6390     0.1060    -3.2900 ca         1 YJA      -0.184000
      5 CAE         -8.0800     1.3340    -2.9040 ca         1 YJA      -0.055000
      6 CAH         -7.5390     1.4810    -1.6140 ca         1 YJA      -0.191000
      7 CBD         -7.5500     0.4110    -0.6990 ca         1 YJA       0.013000
      8 NAX         -6.9830     0.6410     0.5840 ns         1 YJA      -0.153000
      9 CBB         -6.8280    -0.1730     1.6990 c          1 YJA       0.610100
     10 OAB         -7.2040    -1.3370     1.7630 o          1 YJA      -0.553100
     11 CAT         -6.1240     0.4980     2.8720 c3         1 YJA      -0.186700
     12 CBE         -4.6940     0.0680     2.9750 cc         1 YJA       0.271300
     13 CAL         -3.7340     0.3930     2.0040 cc         1 YJA      -0.201000
     14 NAZ         -4.2140    -0.6350     3.9830 nd         1 YJA      -0.507800
     15 NAW         -2.8660    -0.7740     3.6330 na         1 YJA      -0.043200
     16 CBG         -2.5630    -0.1500     2.4200 cd         1 YJA       0.237000
     17 NAY         -1.3120    -0.1280     1.8430 nu         1 YJA      -0.924900
     18 C6          -0.8070     0.3660     0.6360 ca         1 YJA       0.416900
     19 N1          -1.6930     0.8910    -0.2270 nb         1 YJA      -0.266000
     20 C2          -1.2060     1.3560    -1.3910 ca         1 YJA       0.173900
     21 N3           0.0820     1.3460    -1.7830 nb         1 YJA      -0.201000
     22 C4           0.9840     0.8200    -0.9300 ca         1 YJA       0.085000
     23 CAM          2.3440     0.7800    -1.2800 ca         1 YJA      -0.150000
     24 C5           0.5740     0.3040     0.3240 ca         1 YJA      -0.206000
     25 CAJ          1.5380    -0.2420     1.2040 ca         1 YJA      -0.038000
     26 CAI          2.8930    -0.2740     0.8370 ca         1 YJA      -0.197000
     27 CBF          3.3000     0.2390    -0.4110 ca         1 YJA       0.179100
     28 OBA          4.6170     0.2340    -0.8230 os         1 YJA      -0.341100
     29 CAQ          5.6730    -0.2980    -0.0070 c3         1 YJA       0.165600
     30 CAP          6.9900    -0.1370    -0.7860 c3         1 YJA      -0.086400
     31 CAS          8.2040    -0.6860    -0.0050 c3         1 YJA       0.175800
     32 NBK          9.5300    -0.4080    -0.6210 n3         1 YJA      -0.707600
     33 CAO          9.7010    -0.9300    -2.0090 c3         1 YJA       0.162800
     34 CAA          9.6710    -2.4680    -2.1450 c3         1 YJA      -0.129100
     35 CAR         10.6540    -0.7480     0.3090 c3         1 YJA       0.174800
     36 CAN         12.0900    -0.3200    -0.1250 c3         1 YJA       0.163600
     37 OAC         12.2010     1.1060    -0.2830 oh         1 YJA      -0.642000
     38 HAK         -8.1490    -1.6760    -0.4330 ha         1 YJA       0.166000
     39 HAG         -9.0590    -0.0170    -4.2840 ha         1 YJA       0.133000
     40 HAE         -8.0640     2.1700    -3.6010 ha         1 YJA       0.116000
     41 HAH         -7.1080     2.4380    -1.3270 ha         1 YJA       0.112000
     42 HAX         -6.6190     1.5770     0.7030 hn         1 YJA       0.149000
     43 HAT1        -6.1440     1.5870     2.7480 hc         1 YJA       0.073700
     44 HAT2        -6.6490     0.2260     3.7950 hc         1 YJA       0.073700
     45 HAL         -3.9200     0.9710     1.1090 ha         1 YJA       0.173000
     46 HAW         -2.2130    -1.2810     4.2230 hn         1 YJA       0.367000
     47 HAY         -0.5940    -0.5710     2.4120 hn         1 YJA       0.499000
     48 H2          -1.9260     1.7820    -2.0880 h5         1 YJA       0.048100
     49 HAM          2.6660     1.1740    -2.2410 ha         1 YJA       0.152000
     50 HAJ          1.2580    -0.6430     2.1740 ha         1 YJA       0.101000
     51 HAI          3.6100    -0.6990     1.5340 ha         1 YJA       0.121000
     52 HAQ1         5.7400     0.2460     0.9440 h1         1 YJA       0.035700
     53 HAQ2         5.5010    -1.3620     0.2060 h1         1 YJA       0.035700
     54 HAP1         6.8940    -0.6620    -1.7430 hc         1 YJA       0.066700
     55 HAP2         7.1520     0.9250    -1.0030 hc         1 YJA       0.066700
     56 HAS1         8.1790    -0.2320     0.9940 h1         1 YJA       0.026700
     57 HAS2         8.0730    -1.7670     0.1390 h1         1 YJA       0.026700
     58 HAO1         8.9250    -0.5150    -2.6650 h1         1 YJA       0.055200
     59 HAO2        10.6500    -0.5710    -2.4280 h1         1 YJA       0.055200
     60 HAR1        10.4640    -0.2840     1.2860 h1         1 YJA       0.034200
     61 HAR2        10.6680    -1.8310     0.4860 h1         1 YJA       0.034200
     62 HAA1         8.7110    -2.8780    -1.8100 hc         1 YJA       0.035033
     63 HAA2         9.8080    -2.7520    -3.1950 hc         1 YJA       0.035033
     64 HAA3        10.4750    -2.9350    -1.5640 hc         1 YJA       0.035033
     65 HAN1        12.7970    -0.6620     0.6430 h1         1 YJA       0.016200
     66 HAN2        12.3600    -0.8300    -1.0590 h1         1 YJA       0.016200
     67 HAC         13.1160     1.2880    -0.5900 ho         1 YJA       0.436000
@<TRIPOS>BOND
     1     1     2 ar  
     2     1     7 ar  
     3     1    38 1   
     4     2     3 1   
     5     2     4 ar  
     6     4     5 ar  
     7     4    39 1   
     8     5     6 ar  
     9     5    40 1   
    10     6     7 ar  
    11     6    41 1   
    12     7     8 1   
    13     8     9 1   
    14     8    42 1   
    15     9    10 2   
    16     9    11 1   
    17    11    12 1   
    18    11    43 1   
    19    11    44 1   
    20    12    13 1   
    21    12    14 2   
    22    13    16 2   
    23    13    45 1   
    24    14    15 1   
    25    15    16 1   
    26    15    46 1   
    27    16    17 1   
    28    17    18 1   
    29    17    47 1   
    30    18    19 ar  
    31    18    24 ar  
    32    19    20 ar  
    33    20    21 ar  
    34    20    48 1   
    35    21    22 ar  
    36    22    23 ar  
    37    22    24 ar  
    38    23    27 ar  
    39    23    49 1   
    40    24    25 ar  
    41    25    26 ar  
    42    25    50 1   
    43    26    27 ar  
    44    26    51 1   
    45    27    28 1   
    46    28    29 1   
    47    29    30 1   
    48    29    52 1   
    49    29    53 1   
    50    30    31 1   
    51    30    54 1   
    52    30    55 1   
    53    31    32 1   
    54    31    56 1   
    55    31    57 1   
    56    32    33 1   
    57    32    35 1   
    58    33    34 1   
    59    33    58 1   
    60    33    59 1   
    61    34    62 1   
    62    34    63 1   
    63    34    64 1   
    64    35    36 1   
    65    35    60 1   
    66    35    61 1   
    67    36    37 1   
    68    36    65 1   
    69    36    66 1   
    70    37    67 1   
@<TRIPOS>SUBSTRUCTURE
     1 YJA         1 TEMP              0 ****  ****    0 ROOT
