@<TRIPOS>MOLECULE
YJD
   36    38     1     0     0
SMALL
bcc


@<TRIPOS>ATOM
      1 CA          -3.8770     0.2960     0.1320 ca         1 YJD       0.147100
      2 CB          -3.1370    -0.2530     1.1790 ca         1 YJD      -0.192000
      3 CC          -1.7540    -0.2450     1.1290 ca         1 YJD      -0.076000
      4 CD          -1.0960     0.2920     0.0290 ca         1 YJD      -0.029200
      5 CE          -1.8310     0.8310    -1.0170 ca         1 YJD      -0.076000
      6 CF          -3.2160     0.8410    -0.9660 ca         1 YJD      -0.192000
      7 N1           2.4190    -0.4430    -0.1580 nc         1 YJD      -0.663100
      8 C6           1.1580    -0.7550    -0.1380 cd         1 YJD       0.654100
      9 O2           0.6170    -1.9450    -0.2370 os         1 YJD      -0.406400
     10 O4          -5.2170     0.2730     0.2340 oh         1 YJD      -0.490100
     11 C2           2.4390     0.9320    -0.0510 ca         1 YJD       0.100400
     12 C3           3.5150     1.8120    -0.0180 ca         1 YJD      -0.085000
     13 C7           3.2450     3.1680     0.1020 ca         1 YJD      -0.145000
     14 C8           1.9340     3.6460     0.1890 ca         1 YJD      -0.128000
     15 C20          1.5010    -3.0900    -0.3040 c3         1 YJD       0.173100
     16 C9           0.8470     2.7820     0.1590 ca         1 YJD      -0.121000
     17 C10          1.1310     1.4330     0.0370 ca         1 YJD      -0.073200
     18 C11          1.9580    -3.4710     1.0900 c3         1 YJD      -0.108100
     19 N13          0.3170     0.3160    -0.0170 na         1 YJD      -0.106400
     20 C13          0.7170    -4.1890    -0.9860 c3         1 YJD      -0.108100
     21 HB          -3.6460    -0.6760     2.0350 ha         1 YJD       0.144000
     22 HF          -3.7770     1.2690    -1.7880 ha         1 YJD       0.144000
     23 H4          -5.6240     0.6720    -0.5430 ho         1 YJD       0.429000
     24 HC          -1.1880    -0.6580     1.9530 ha         1 YJD       0.147000
     25 HE          -1.3240     1.2470    -1.8780 ha         1 YJD       0.147000
     26 H20          2.3640    -2.8190    -0.9170 h1         1 YJD       0.072700
     27 H3           4.5320     1.4480    -0.0850 ha         1 YJD       0.144000
     28 H7           4.0660     3.8730     0.1290 ha         1 YJD       0.130000
     29 H8           1.7620     4.7100     0.2810 ha         1 YJD       0.129000
     30 H9          -0.1680     3.1510     0.2250 ha         1 YJD       0.139000
     31 H111         1.1130    -3.7720     1.7110 hc         1 YJD       0.049367
     32 H112         2.6460    -4.3140     1.0270 hc         1 YJD       0.049367
     33 H113         2.4820    -2.6530     1.5820 hc         1 YJD       0.049367
     34 H131         0.4050    -3.8960    -1.9880 hc         1 YJD       0.049367
     35 H132         1.3430    -5.0760    -1.0770 hc         1 YJD       0.049367
     36 H133        -0.1690    -4.4630    -0.4100 hc         1 YJD       0.049367
@<TRIPOS>BOND
     1     1     2 ar  
     2     1     6 ar  
     3     1    10 1   
     4     2     3 ar  
     5     2    21 1   
     6     3     4 ar  
     7     3    24 1   
     8     4     5 ar  
     9     4    19 1   
    10     5     6 ar  
    11     5    25 1   
    12     6    22 1   
    13     7     8 2   
    14     7    11 1   
    15     8     9 1   
    16     8    19 1   
    17     9    15 1   
    18    10    23 1   
    19    11    12 ar  
    20    11    17 ar  
    21    12    13 ar  
    22    12    27 1   
    23    13    14 ar  
    24    13    28 1   
    25    14    16 ar  
    26    14    29 1   
    27    15    18 1   
    28    15    20 1   
    29    15    26 1   
    30    16    17 ar  
    31    16    30 1   
    32    17    19 1   
    33    18    31 1   
    34    18    32 1   
    35    18    33 1   
    36    20    34 1   
    37    20    35 1   
    38    20    36 1   
@<TRIPOS>SUBSTRUCTURE
     1 YJD         1 TEMP              0 ****  ****    0 ROOT
