@<TRIPOS>MOLECULE
YJD
   36    38     1     0     0
SMALL
No Charge or Current Charge


@<TRIPOS>ATOM
      1 CA          -3.7560     0.1830    -0.2100 ca         1 YJD       0.147100
      2 CB          -3.2830    -0.2950     1.0210 ca         1 YJD      -0.174000
      3 CC          -1.9100    -0.2370     1.3190 ca         1 YJD      -0.058000
      4 CD          -1.0050     0.2980     0.3830 ca         1 YJD      -0.029200
      5 CE          -1.4860     0.7790    -0.8530 ca         1 YJD      -0.058000
      6 CF          -2.8600     0.7210    -1.1480 ca         1 YJD      -0.174000
      7 N1           2.3190    -0.3620    -0.3740 nc         1 YJD      -0.663100
      8 C6           1.1110    -0.6920     0.1190 cd         1 YJD       0.654100
      9 O2           0.5490    -1.9400     0.0180 os         1 YJD      -0.429600
     10 O4          -5.0890     0.1220    -0.4880 oh         1 YJD      -0.529100
     11 C2           2.3190     1.0060    -0.1440 ca         1 YJD       0.100400
     12 C3           3.3270     1.9240    -0.4740 ca         1 YJD      -0.067000
     13 C7           3.1250     3.2890    -0.1750 ca         1 YJD      -0.127000
     14 C8           1.9270     3.7170     0.4430 ca         1 YJD      -0.110000
     15 C20          1.3590    -3.0780    -0.3210 c3         1 YJD       0.196300
     16 C9           0.9250     2.7820     0.7680 ca         1 YJD      -0.103000
     17 C10          1.1600     1.4350     0.4570 ca         1 YJD      -0.073200
     18 C11          2.1930    -3.4710     0.9190 c3         1 YJD      -0.108100
     19 N13          0.3560     0.3510     0.6900 na         1 YJD      -0.106400
     20 C13          0.3880    -4.1940    -0.7460 c3         1 YJD      -0.108100
     21 HB          -3.9780    -0.7100     1.7450 ha         1 YJD       0.126000
     22 HF          -3.2180     1.0940    -2.1040 ha         1 YJD       0.126000
     23 H4          -5.2370     0.4970    -1.3820 ho         1 YJD       0.468000
     24 HC          -1.5480    -0.6100     2.2750 ha         1 YJD       0.129000
     25 HE          -0.7960     1.1970    -1.5840 ha         1 YJD       0.129000
     26 H20          2.0260    -2.8590    -1.1660 h1         1 YJD       0.072700
     27 H3           4.2430     1.5890    -0.9530 ha         1 YJD       0.126000
     28 H7           3.8950     4.0160    -0.4240 ha         1 YJD       0.112000
     29 H8           1.7790     4.7710     0.6690 ha         1 YJD       0.111000
     30 H9          -0.0000     3.0940     1.2480 ha         1 YJD       0.121000
     31 H111         1.5440    -3.6500     1.7840 hc         1 YJD       0.049367
     32 H112         2.7620    -4.3870     0.7210 hc         1 YJD       0.049367
     33 H113         2.9090    -2.6830     1.1790 hc         1 YJD       0.049367
     34 H131        -0.1970    -3.8810    -1.6190 hc         1 YJD       0.049367
     35 H132         0.9400    -5.1020    -1.0150 hc         1 YJD       0.049367
     36 H133        -0.3060    -4.4400     0.0670 hc         1 YJD       0.049367
@<TRIPOS>BOND
     1     1     2 ar  
     2     1     6 ar  
     3     1    10 1   
     4     2     3 ar  
     5     2    21 1   
     6     3     4 ar  
     7     3    24 1   
     8     4     5 ar  
     9     4    19 1   
    10     5     6 ar  
    11     5    25 1   
    12     6    22 1   
    13     7     8 2   
    14     7    11 1   
    15     8     9 1   
    16     8    19 1   
    17     9    15 1   
    18    10    23 1   
    19    11    12 ar  
    20    11    17 ar  
    21    12    13 ar  
    22    12    27 1   
    23    13    14 ar  
    24    13    28 1   
    25    14    16 ar  
    26    14    29 1   
    27    15    18 1   
    28    15    20 1   
    29    15    26 1   
    30    16    17 ar  
    31    16    30 1   
    32    17    19 1   
    33    18    31 1   
    34    18    32 1   
    35    18    33 1   
    36    20    34 1   
    37    20    35 1   
    38    20    36 1   
@<TRIPOS>SUBSTRUCTURE
     1 YJD         1 TEMP              0 ****  ****    0 ROOT
