@<TRIPOS>MOLECULE
YJE
   26    26     1     0     0
SMALL
abcg2


@<TRIPOS>ATOM
      1 C10          3.0700    -0.6310    20.0520 c          1 YJE       0.554100
      2 C13          5.5680    -0.8610    20.1010 c3         1 YJE      -0.086100
      3 C15          3.5270     2.6170    17.1790 ca         1 YJE      -0.092500
      4 C04          4.4000     3.5860    17.6790 ca         1 YJE      -0.115600
      5 C05          5.2670     3.2210    18.7060 ca         1 YJE      -0.092500
      6 C06          5.2730     1.9270    19.2160 ca         1 YJE      -0.124000
      7 C07          4.4090     0.9590    18.7070 ca         1 YJE      -0.135300
      8 C08          4.3680    -0.4780    19.2330 c3         1 YJE       0.141300
      9 C11          2.9280     0.1230    21.3380 c3         1 YJE      -0.187100
     10 C14          3.5280     1.3260    17.6870 ca         1 YJE      -0.124000
     11 O01          5.1530     5.8410    17.6800 o          1 YJE      -0.720500
     12 O03          3.6830     5.2210    16.1060 o          1 YJE      -0.720500
     13 O09          4.3010    -1.3820    18.1370 oh         1 YJE      -0.659000
     14 O12          2.2030    -1.3790    19.6390 o          1 YJE      -0.555100
     15 H1           5.6580    -0.2350    20.9860 hc         1 YJE       0.041700
     16 H2           5.4600    -1.8980    20.4190 hc         1 YJE       0.041700
     17 H3           6.4810    -0.7670    19.5120 hc         1 YJE       0.041700
     18 H4           2.8470     2.8890    16.3830 ha         1 YJE       0.130000
     19 H5           5.9450     3.9630    19.1040 ha         1 YJE       0.130000
     20 H6           5.9640     1.6800    20.0100 ha         1 YJE       0.090500
     21 H7           1.8740     0.2910    21.5530 hc         1 YJE       0.064367
     22 H8           3.3490    -0.4920    22.1400 hc         1 YJE       0.064367
     23 H9           3.4710     1.0660    21.3240 hc         1 YJE       0.064367
     24 H10          2.8490     0.5890    17.2780 ha         1 YJE       0.090500
     25 H12          3.4220    -1.7980    18.1880 ho         1 YJE       0.456000
     26 C02          4.4110     5.0030    17.1080 c          1 YJE       0.704600
@<TRIPOS>BOND
     1     1     8 1   
     2     1     9 1   
     3     1    14 2   
     4     2     8 1   
     5     2    15 1   
     6     2    16 1   
     7     2    17 1   
     8     3     4 ar  
     9     3    10 ar  
    10     3    18 1   
    11     4     5 ar  
    12     4    26 1   
    13     5     6 ar  
    14     5    19 1   
    15     6     7 ar  
    16     6    20 1   
    17     7     8 1   
    18     7    10 ar  
    19     8    13 1   
    20     9    21 1   
    21     9    22 1   
    22     9    23 1   
    23    10    24 1   
    24    11    26 1   
    25    12    26 1   
    26    13    25 1   
@<TRIPOS>SUBSTRUCTURE
     1 YJE         1 TEMP              0 ****  ****    0 ROOT
