@<TRIPOS>MOLECULE
YJE
   26    26     1     0     0
SMALL
No Charge or Current Charge


@<TRIPOS>ATOM
      1 C10          3.0140    -0.7170    19.9900 c          1 YJE       0.554100
      2 C13          5.5620    -0.8210    20.2610 c3         1 YJE      -0.086100
      3 C15          3.4200     2.6740    17.3000 ca         1 YJE      -0.092500
      4 C04          4.4210     3.6070    17.6490 ca         1 YJE      -0.115600
      5 C05          5.4350     3.1930    18.5410 ca         1 YJE      -0.092500
      6 C06          5.4480     1.8890    19.0680 ca         1 YJE      -0.124000
      7 C07          4.4450     0.9550    18.7200 ca         1 YJE      -0.135300
      8 C08          4.4040    -0.4860    19.2810 c3         1 YJE       0.141300
      9 C11          2.7510     0.0180    21.3080 c3         1 YJE      -0.187100
     10 C14          3.4340     1.3710    17.8270 ca         1 YJE      -0.124000
     11 O01          5.2960     5.7930    17.4090 o          1 YJE      -0.720500
     12 O03          3.5090     5.3330    16.3110 o          1 YJE      -0.720500
     13 O09          4.5570    -1.3920    18.1640 oh         1 YJE      -0.659000
     14 O12          2.1490    -1.4370    19.4940 o          1 YJE      -0.555100
     15 H1           5.5710    -0.1430    21.1230 hc         1 YJE       0.041700
     16 H2           5.4600    -1.8450    20.6420 hc         1 YJE       0.041700
     17 H3           6.5340    -0.7480    19.7590 hc         1 YJE       0.041700
     18 H4           2.6230     2.9560    16.6140 ha         1 YJE       0.130000
     19 H5           6.2230     3.8840    18.8310 ha         1 YJE       0.130000
     20 H6           6.2530     1.6280    19.7490 ha         1 YJE       0.090500
     21 H7           1.6920    -0.0010    21.5920 hc         1 YJE       0.064367
     22 H8           3.3600    -0.4430    22.0930 hc         1 YJE       0.064367
     23 H9           3.1500     1.0370    21.2540 hc         1 YJE       0.064367
     24 H10          2.6460     0.6810    17.5320 ha         1 YJE       0.090500
     25 H12          3.6450    -1.6230    17.8740 ho         1 YJE       0.456000
     26 C02          4.4080     5.0190    17.0790 c          1 YJE       0.704600
@<TRIPOS>BOND
     1     1     8 1   
     2     1     9 1   
     3     1    14 2   
     4     2     8 1   
     5     2    15 1   
     6     2    16 1   
     7     2    17 1   
     8     3     4 ar  
     9     3    10 ar  
    10     3    18 1   
    11     4     5 ar  
    12     4    26 1   
    13     5     6 ar  
    14     5    19 1   
    15     6     7 ar  
    16     6    20 1   
    17     7     8 1   
    18     7    10 ar  
    19     8    13 1   
    20     9    21 1   
    21     9    22 1   
    22     9    23 1   
    23    10    24 1   
    24    11    26 1   
    25    12    26 1   
    26    13    25 1   
@<TRIPOS>SUBSTRUCTURE
     1 YJE         1 TEMP              0 ****  ****    0 ROOT
