@<TRIPOS>MOLECULE
YJF
   63    66     1     0     0
SMALL
abcg2


@<TRIPOS>ATOM
      1 C10        -11.1880    10.3260    -1.2620 ca         1 YJF      -0.274500
      2 C11        -10.3760    10.5110    -2.3770 ca         1 YJF      -0.009500
      3 C12         -9.9490    11.7950    -2.6890 ca         1 YJF      -0.131000
      4 C13        -10.3340    12.8710    -1.8950 ca         1 YJF      -0.056000
      5 C14        -11.1470    12.6710    -0.7830 ca         1 YJF      -0.131000
      6 C15        -11.5830    11.3930    -0.4600 ca         1 YJF      -0.009500
      7 C17        -14.5590     8.6850    -1.2110 cc         1 YJF      -0.073000
      8 C18        -17.4240     9.7070    -1.7300 c6         1 YJF       0.149300
      9 C20        -18.9550     9.5620    -1.7450 c6         1 YJF       0.253300
     10 C22        -21.4010    10.7980    -1.4760 c6         1 YJF       0.303300
     11 C23        -22.3360    11.7240    -0.7010 c6         1 YJF       0.135300
     12 C25        -23.7410    11.5840    -1.2860 c6         1 YJF       0.094300
     13 O32        -21.4380    11.1310    -2.8520 os         1 YJF      -0.443000
     14 O33        -19.3570     8.3680    -1.1020 os         1 YJF      -0.417000
     15 C02        -17.3570     7.1560    -1.7120 c6         1 YJF       0.133300
     16 C03        -16.8120     8.4480    -2.3420 c6         1 YJF       0.068300
     17 C07        -13.2890     8.5560    -1.7240 cd         1 YJF      -0.026100
     18 C27        -23.7470    11.8110    -2.7920 c6         1 YJF       0.141300
     19 C29        -22.7180    10.8940    -3.4520 c6         1 YJF       0.162300
     20 C30        -22.5840    11.1480    -4.9340 c3         1 YJF       0.170600
     21 C34        -18.8810     7.1990    -1.7790 c6         1 YJF       0.153300
     22 C35        -19.5280     5.9920    -1.1430 c3         1 YJF       0.171600
     23 N04        -15.3550     8.4910    -2.2760 na         1 YJF       0.128800
     24 N05        -14.6230     8.2590    -3.3880 nc         1 YJF      -0.193800
     25 N06        -13.3700     8.3000    -3.0550 nd         1 YJF      -0.270000
     26 O01        -16.9340     7.0360    -0.3580 oh         1 YJF      -0.710000
     27 O09        -12.0790     8.6430     0.5420 o          1 YJF      -0.531500
     28 O16        -10.8420     7.7360    -1.4340 o          1 YJF      -0.531500
     29 O19        -16.9870    10.7970    -2.5210 oh         1 YJF      -0.710000
     30 O24        -22.3140    11.3610     0.6710 oh         1 YJF      -0.702000
     31 O26        -24.6310    12.5330    -0.6930 oh         1 YJF      -0.672000
     32 O28        -25.0300    11.5270    -3.3350 oh         1 YJF      -0.719000
     33 S08        -11.7610     8.6980    -0.8690 sy         1 YJF       1.034600
     34 S21        -19.6960    10.9680    -0.8760 ss         1 YJF      -0.328000
     35 H111       -10.0820     9.6650    -2.9830 ha         1 YJF       0.137500
     36 H121        -9.3140    11.9530    -3.5510 ha         1 YJF       0.119500
     37 H131        -9.9980    13.8700    -2.1430 ha         1 YJF       0.116000
     38 H141       -11.4410    13.5100    -0.1660 ha         1 YJF       0.119500
     39 H151       -12.2140    11.2250     0.4010 ha         1 YJF       0.137500
     40 H171       -14.9230     8.8850    -0.2210 h4         1 YJF       0.193000
     41 H181       -17.0940     9.8160    -0.6910 h1         1 YJF       0.068700
     42 H201       -19.3040     9.5730    -2.7830 h2         1 YJF       0.089700
     43 H221       -21.7030     9.7560    -1.3300 h2         1 YJF       0.089700
     44 H231       -21.9970    12.7580    -0.8330 h1         1 YJF       0.066700
     45 H251       -24.0960    10.5680    -1.0870 h1         1 YJF       0.060700
     46 H311       -21.7180    10.2720    -6.4540 ho         1 YJF       0.506000
     47 H361       -21.3480     5.2930    -0.9850 ho         1 YJF       0.508000
     48 H021       -16.9970     6.3100    -2.3010 h1         1 YJF       0.062700
     49 H031       -17.0500     8.4380    -3.4070 h1         1 YJF       0.112700
     50 H271       -23.4720    12.8540    -2.9920 h1         1 YJF       0.060700
     51 H291       -23.0110     9.8490    -3.2880 h1         1 YJF       0.069700
     52 H301       -22.1270    12.1320    -5.0870 h1         1 YJF       0.043700
     53 H302       -23.5820    11.1540    -5.3790 h1         1 YJF       0.043700
     54 H341       -19.1780     7.2470    -2.8350 h1         1 YJF       0.066700
     55 H352       -19.0320     5.0910    -1.5210 h1         1 YJF       0.040700
     56 H351       -19.3930     6.0350    -0.0600 h1         1 YJF       0.040700
     57 H011       -16.2590     6.3510    -0.2990 ho         1 YJF       0.514000
     58 H191       -17.3050    11.6190    -2.1240 ho         1 YJF       0.527000
     59 H241       -22.8730    11.9840     1.1530 ho         1 YJF       0.511000
     60 H261       -25.1430    12.0960    -0.0030 ho         1 YJF       0.453000
     61 H281       -25.6760    12.0220    -2.8120 ho         1 YJF       0.520000
     62 O31        -21.7780    10.1170    -5.5040 oh         1 YJF      -0.722000
     63 O36        -20.9120     5.9910    -1.4880 oh         1 YJF      -0.720000
@<TRIPOS>BOND
     1     1     2 ar  
     2     1     6 ar  
     3     1    33 1   
     4     2     3 ar  
     5     2    35 1   
     6     3     4 ar  
     7     3    36 1   
     8     4     5 ar  
     9     4    37 1   
    10     5     6 ar  
    11     5    38 1   
    12     6    39 1   
    13     7    17 2   
    14     7    23 1   
    15     7    40 1   
    16     8     9 1   
    17     8    16 1   
    18     8    29 1   
    19     8    41 1   
    20     9    14 1   
    21     9    34 1   
    22     9    42 1   
    23    10    11 1   
    24    10    13 1   
    25    10    34 1   
    26    10    43 1   
    27    11    12 1   
    28    11    30 1   
    29    11    44 1   
    30    12    18 1   
    31    12    31 1   
    32    12    45 1   
    33    13    19 1   
    34    14    21 1   
    35    15    16 1   
    36    15    21 1   
    37    15    26 1   
    38    15    48 1   
    39    16    23 1   
    40    16    49 1   
    41    17    25 1   
    42    17    33 1   
    43    18    19 1   
    44    18    32 1   
    45    18    50 1   
    46    19    20 1   
    47    19    51 1   
    48    20    52 1   
    49    20    53 1   
    50    20    62 1   
    51    21    22 1   
    52    21    54 1   
    53    22    55 1   
    54    22    56 1   
    55    22    63 1   
    56    23    24 1   
    57    24    25 2   
    58    26    57 1   
    59    27    33 2   
    60    28    33 2   
    61    29    58 1   
    62    30    59 1   
    63    31    60 1   
    64    32    61 1   
    65    46    62 1   
    66    47    63 1   
@<TRIPOS>SUBSTRUCTURE
     1 YJF         1 TEMP              0 ****  ****    0 ROOT
