@<TRIPOS>MOLECULE
YJF
   63    66     1     0     0
SMALL
No Charge or Current Charge


@<TRIPOS>ATOM
      1 C10        -11.1810    10.3120    -1.1700 ca         1 YJF      -0.274500
      2 C11        -10.4110    10.6690    -2.2970 ca         1 YJF      -0.009500
      3 C12        -10.0540    12.0130    -2.5070 ca         1 YJF      -0.131000
      4 C13        -10.4640    13.0040    -1.6000 ca         1 YJF      -0.056000
      5 C14        -11.2360    12.6510    -0.4800 ca         1 YJF      -0.131000
      6 C15        -11.5970    11.3100    -0.2630 ca         1 YJF      -0.009500
      7 C17        -14.4430     8.6200    -1.3600 cc         1 YJF      -0.073000
      8 C18        -17.2880     9.7780    -1.7990 c6         1 YJF       0.149300
      9 C20        -18.8520     9.7750    -1.8580 c6         1 YJF       0.253300
     10 C22        -21.3660    10.8930    -1.4270 c6         1 YJF       0.303300
     11 C23        -22.3560    11.8990    -0.7520 c6         1 YJF       0.135300
     12 C25        -23.7990    11.5910    -1.2470 c6         1 YJF       0.094300
     13 O32        -21.4790    10.9890    -2.8630 os         1 YJF      -0.443000
     14 O33        -19.3750     8.5710    -1.2600 os         1 YJF      -0.417000
     15 C02        -17.3920     7.2060    -1.8170 c6         1 YJF       0.133300
     16 C03        -16.7420     8.4720    -2.4610 c6         1 YJF       0.068300
     17 C07        -13.1820     8.4210    -1.8560 cd         1 YJF      -0.026100
     18 C27        -23.8580    11.6200    -2.8020 c6         1 YJF       0.141300
     19 C29        -22.7900    10.6400    -3.3810 c6         1 YJF       0.162300
     20 C30        -22.7270    10.6760    -4.9440 c3         1 YJF       0.170600
     21 C34        -18.9470     7.3570    -1.9260 c6         1 YJF       0.153300
     22 C35        -19.7360     6.1500    -1.3190 c3         1 YJF       0.171600
     23 N04        -15.2600     8.3940    -2.4440 na         1 YJF       0.128800
     24 N05        -14.5280     8.0660    -3.5490 nc         1 YJF      -0.193800
     25 N06        -13.2710     8.0860    -3.1970 nd         1 YJF      -0.270000
     26 O01        -16.9630     7.0680    -0.4410 oh         1 YJF      -0.710000
     27 O09        -11.9850     8.4310     0.5180 o          1 YJF      -0.531500
     28 O16        -10.6240     7.7470    -1.5400 o          1 YJF      -0.531500
     29 O19        -16.7440    10.9480    -2.4510 oh         1 YJF      -0.710000
     30 O24        -22.3110    11.8360     0.6930 oh         1 YJF      -0.702000
     31 O26        -24.7380    12.5270    -0.6860 oh         1 YJF      -0.672000
     32 O28        -25.1910    11.2940    -3.2320 oh         1 YJF      -0.719000
     33 S08        -11.6550     8.5870    -0.9080 sy         1 YJF       1.034600
     34 S21        -19.6040    11.2140    -0.9810 ss         1 YJF      -0.328000
     35 H111       -10.0890     9.9130    -3.0120 ha         1 YJF       0.137500
     36 H121        -9.4590    12.2850    -3.3760 ha         1 YJF       0.119500
     37 H131       -10.1870    14.0430    -1.7650 ha         1 YJF       0.116000
     38 H141       -11.5560    13.4190     0.2210 ha         1 YJF       0.119500
     39 H151       -12.1990    11.0550     0.6090 ha         1 YJF       0.137500
     40 H171       -14.8010     8.8840    -0.3740 h4         1 YJF       0.193000
     41 H181       -17.0000     9.7760    -0.7370 h1         1 YJF       0.068700
     42 H201       -19.1760     9.8380    -2.9080 h2         1 YJF       0.089700
     43 H221       -21.6000     9.8690    -1.0990 h2         1 YJF       0.089700
     44 H231       -22.0830    12.9110    -1.0900 h1         1 YJF       0.066700
     45 H251       -24.0530    10.5720    -0.9160 h1         1 YJF       0.060700
     46 H311       -21.7080     9.9570    -6.4720 ho         1 YJF       0.506000
     47 H361       -21.5730     5.5130    -0.9950 ho         1 YJF       0.508000
     48 H021       -17.0820     6.3260    -2.4010 h1         1 YJF       0.062700
     49 H031       -17.0440     8.4950    -3.5170 h1         1 YJF       0.112700
     50 H271       -23.6000    12.6370    -3.1360 h1         1 YJF       0.060700
     51 H291       -23.0310     9.6110    -3.0730 h1         1 YJF       0.069700
     52 H301       -22.5580    11.7170    -5.2520 h1         1 YJF       0.043700
     53 H302       -23.7100    10.3780    -5.3330 h1         1 YJF       0.043700
     54 H341       -19.2250     7.4230    -2.9890 h1         1 YJF       0.066700
     55 H352       -19.3910     5.2330    -1.8160 h1         1 YJF       0.040700
     56 H351       -19.4740     6.0640    -0.2550 h1         1 YJF       0.040700
     57 H011       -17.0080     6.1120    -0.2050 ho         1 YJF       0.514000
     58 H191       -17.1190    11.7360    -1.9910 ho         1 YJF       0.527000
     59 H241       -21.3840    12.0340     0.9630 ho         1 YJF       0.511000
     60 H261       -24.4440    12.6540     0.2470 ho         1 YJF       0.453000
     61 H281       -25.7780    11.7390    -2.5720 ho         1 YJF       0.520000
     62 O31        -21.7000     9.8220    -5.4950 oh         1 YJF      -0.722000
     63 O36        -21.1660     6.2800    -1.4620 oh         1 YJF      -0.720000
@<TRIPOS>BOND
     1     1     2 ar  
     2     1     6 ar  
     3     1    33 1   
     4     2     3 ar  
     5     2    35 1   
     6     3     4 ar  
     7     3    36 1   
     8     4     5 ar  
     9     4    37 1   
    10     5     6 ar  
    11     5    38 1   
    12     6    39 1   
    13     7    17 2   
    14     7    23 1   
    15     7    40 1   
    16     8     9 1   
    17     8    16 1   
    18     8    29 1   
    19     8    41 1   
    20     9    14 1   
    21     9    34 1   
    22     9    42 1   
    23    10    11 1   
    24    10    13 1   
    25    10    34 1   
    26    10    43 1   
    27    11    12 1   
    28    11    30 1   
    29    11    44 1   
    30    12    18 1   
    31    12    31 1   
    32    12    45 1   
    33    13    19 1   
    34    14    21 1   
    35    15    16 1   
    36    15    21 1   
    37    15    26 1   
    38    15    48 1   
    39    16    23 1   
    40    16    49 1   
    41    17    25 1   
    42    17    33 1   
    43    18    19 1   
    44    18    32 1   
    45    18    50 1   
    46    19    20 1   
    47    19    51 1   
    48    20    52 1   
    49    20    53 1   
    50    20    62 1   
    51    21    22 1   
    52    21    54 1   
    53    22    55 1   
    54    22    56 1   
    55    22    63 1   
    56    23    24 1   
    57    24    25 2   
    58    26    57 1   
    59    27    33 2   
    60    28    33 2   
    61    29    58 1   
    62    30    59 1   
    63    31    60 1   
    64    32    61 1   
    65    46    62 1   
    66    47    63 1   
@<TRIPOS>SUBSTRUCTURE
     1 YJF         1 TEMP              0 ****  ****    0 ROOT
