@<TRIPOS>MOLECULE
YJG
   51    53     1     0     0
SMALL
No Charge or Current Charge


@<TRIPOS>ATOM
      1 C14        121.2800   183.7630   145.9680 cc         1 YJG       0.012800
      2 C28        122.7530   177.5830   143.7620 ca         1 YJG      -0.075000
      3 C27        122.9690   176.9300   142.5370 ca         1 YJG      -0.157000
      4 C16        120.9220   183.1990   144.6390 c          1 YJG       0.545200
      5 C02        123.2370   177.8820   138.4790 ca         1 YJG       0.012700
      6 C03        123.8660   178.8550   139.2790 ca         1 YJG      -0.119000
      7 C04        123.1570   179.5610   140.2620 ca         1 YJG      -0.066000
      8 C05        121.7880   179.3060   140.4660 ca         1 YJG      -0.053000
      9 C07        121.3850   180.6700   142.6040 c          1 YJG       0.599100
     10 C09        120.1910   181.1030   143.4700 c3         1 YJG       0.015000
     11 C12        120.8520   181.6170   147.0260 cd         1 YJG       0.357500
     12 C13        121.2460   182.9980   147.1200 cd         1 YJG      -0.235600
     13 C18        121.1420   178.3680   139.6430 ca         1 YJG      -0.072000
     14 C19        121.8450   177.6410   138.6530 ca         1 YJG      -0.236500
     15 C23        120.9750   175.0040   140.0140 c3         1 YJG       0.214800
     16 C25        122.2910   175.1950   140.8010 c3         1 YJG      -0.134700
     17 C26        122.0930   175.9040   142.1340 ca         1 YJG       0.344300
     18 C29        121.6630   177.1700   144.5430 ca         1 YJG      -0.171000
     19 C30        120.8460   176.1250   144.0810 ca         1 YJG       0.338900
     20 N06        121.0180   179.9320   141.4850 ns         1 YJG      -0.142000
     21 N10        120.5600   181.8280   144.7110 n          1 YJG      -0.114800
     22 N11        120.5230   181.0570   145.8620 nc         1 YJG      -0.419300
     23 N31        121.0530   175.4970   142.9000 nb         1 YJG      -0.682000
     24 O08        122.5470   180.9380   142.8960 o          1 YJG      -0.567100
     25 O17        120.9280   183.8330   143.5870 o          1 YJG      -0.507000
     26 S20        120.9160   176.3950   137.7010 sy         1 YJG       1.139600
     27 Cl1        121.7460   185.4420   146.0140 cl         1 YJG      -0.122000
     28 H27        123.8010   177.2220   141.9020 ha         1 YJG       0.133000
     29 H03        124.9270   179.0600   139.1520 ha         1 YJG       0.120000
     30 H04        123.6920   180.2950   140.8570 ha         1 YJG       0.147000
     31 H091       119.5410   181.7360   142.8540 h1         1 YJG       0.091700
     32 H092       119.6230   180.2000   143.7250 h1         1 YJG       0.091700
     33 H12        120.8010   180.9580   147.8830 h4         1 YJG       0.051800
     34 H2         121.5080   183.4210   148.0830 ha         1 YJG       0.213000
     35 H18        120.0810   178.1790   139.7990 ha         1 YJG       0.138000
     36 H231       120.2510   175.7840   140.2880 h1         1 YJG       0.061700
     37 H232       120.5360   174.0490   140.3370 h1         1 YJG       0.061700
     38 H252       122.7470   174.2130   140.9670 hc         1 YJG       0.065700
     39 H251       123.0100   175.7530   140.1960 hc         1 YJG       0.065700
     40 H29        121.4520   177.6450   145.4980 ha         1 YJG       0.125000
     41 H30        119.9980   175.7810   144.6720 h4         1 YJG       0.019100
     42 H06        120.0210   179.7830   141.3950 hn         1 YJG       0.156000
     43 C01        124.1030   177.1160   137.4820 c3         1 YJG      -0.066800
     44 N23        121.2150   174.9880   138.5550 n7         1 YJG      -0.895300
     45 O21        121.5330   176.1830   136.3900 o          1 YJG      -0.545500
     46 O22        119.4760   176.6190   137.8460 o          1 YJG      -0.545500
     47 H28        123.4100   178.3850   144.0930 ha         1 YJG       0.132000
     48 H013       123.8780   177.4120   136.4510 hc         1 YJG       0.060700
     49 H011       125.1710   177.3050   137.6440 hc         1 YJG       0.060700
     50 H012       123.9590   176.0330   137.5730 hc         1 YJG       0.060700
     51 H23        120.4960   174.4050   138.1270 hn         1 YJG       0.490000
@<TRIPOS>BOND
     1     1     4 1   
     2     1    12 2   
     3     1    27 1   
     4     2     3 ar  
     5     2    18 ar  
     6     2    47 1   
     7     3    17 ar  
     8     3    28 1   
     9     4    21 1   
    10     4    25 2   
    11     5     6 ar  
    12     5    14 ar  
    13     5    43 1   
    14     6     7 ar  
    15     6    29 1   
    16     7     8 ar  
    17     7    30 1   
    18     8    13 ar  
    19     8    20 1   
    20     9    10 1   
    21     9    20 1   
    22     9    24 2   
    23    10    21 1   
    24    10    31 1   
    25    10    32 1   
    26    11    12 1   
    27    11    22 2   
    28    11    33 1   
    29    12    34 1   
    30    13    14 ar  
    31    13    35 1   
    32    14    26 1   
    33    15    16 1   
    34    15    36 1   
    35    15    37 1   
    36    15    44 1   
    37    16    17 1   
    38    16    38 1   
    39    16    39 1   
    40    17    23 ar  
    41    18    19 ar  
    42    18    40 1   
    43    19    23 ar  
    44    19    41 1   
    45    20    42 1   
    46    21    22 1   
    47    26    44 1   
    48    26    45 2   
    49    26    46 2   
    50    43    48 1   
    51    43    49 1   
    52    43    50 1   
    53    44    51 1   
@<TRIPOS>SUBSTRUCTURE
     1 YJG         1 TEMP              0 ****  ****    0 ROOT
