@<TRIPOS>MOLECULE
YJG
   51    53     1     0     0
SMALL
abcg2


@<TRIPOS>ATOM
      1 C14        121.5260   183.6630   145.6250 cc         1 YJG       0.012800
      2 C28        121.9270   177.5060   144.1750 ca         1 YJG      -0.075000
      3 C27        122.4210   177.0870   142.9510 ca         1 YJG      -0.157000
      4 C16        121.0440   182.9860   144.4340 c          1 YJG       0.545200
      5 C02        123.2040   178.0400   138.4030 ca         1 YJG       0.012700
      6 C03        123.7710   179.0720   139.1420 ca         1 YJG      -0.119000
      7 C04        123.0720   179.7900   140.1010 ca         1 YJG      -0.066000
      8 C05        121.7400   179.4820   140.3570 ca         1 YJG      -0.053000
      9 C07        121.4270   180.5860   142.5340 c          1 YJG       0.599100
     10 C09        120.3030   180.8790   143.5190 c3         1 YJG       0.015000
     11 C12        121.4610   181.5950   146.7820 cd         1 YJG       0.357500
     12 C13        121.7370   182.9870   146.7720 cd         1 YJG      -0.235600
     13 C18        121.1270   178.4900   139.5970 ca         1 YJG      -0.072000
     14 C19        121.8480   177.7880   138.6450 ca         1 YJG      -0.236500
     15 C23        121.2540   175.0140   140.0850 c3         1 YJG       0.214800
     16 C25        122.3790   175.4740   141.0190 c3         1 YJG      -0.134700
     17 C26        121.8760   175.9540   142.3500 ca         1 YJG       0.344300
     18 C29        120.8960   176.7880   144.7620 ca         1 YJG      -0.171000
     19 C30        120.4160   175.6750   144.0900 ca         1 YJG       0.338900
     20 N06        120.9750   180.1080   141.3490 ns         1 YJG      -0.142000
     21 N10        120.7850   181.6460   144.6400 n          1 YJG      -0.114800
     22 N11        121.0050   180.9610   145.7550 nc         1 YJG      -0.419300
     23 N31        120.8890   175.2640   142.9190 nb         1 YJG      -0.682000
     24 O08        122.5930   180.7360   142.8270 o          1 YJG      -0.567100
     25 O17        120.8610   183.5110   143.3510 o          1 YJG      -0.507000
     26 S20        120.9950   176.4460   137.8450 sy         1 YJG       1.139600
     27 CL1        121.8210   185.3390   145.4720 cl         1 YJG      -0.122000
     28 H27        123.2160   177.6330   142.4590 ha         1 YJG       0.133000
     29 H03        124.8110   179.3200   138.9720 ha         1 YJG       0.120000
     30 H04        123.5760   180.5760   140.6380 ha         1 YJG       0.147000
     31 H091       119.4750   181.3940   143.0310 h1         1 YJG       0.091700
     32 H092       119.9210   179.9340   143.9080 h1         1 YJG       0.091700
     33 H12        121.6230   181.0060   147.6740 h4         1 YJG       0.051800
     34 H2         122.1070   183.4720   147.6650 ha         1 YJG       0.213000
     35 H18        120.0880   178.2480   139.7800 ha         1 YJG       0.138000
     36 H231       120.3310   175.5550   140.3050 h1         1 YJG       0.061700
     37 H232       121.0220   173.9650   140.2540 h1         1 YJG       0.061700
     38 H252       123.0850   174.6530   141.1710 hc         1 YJG       0.065700
     39 H251       122.9520   176.2750   140.5500 hc         1 YJG       0.065700
     40 H29        120.4720   177.0800   145.7130 ha         1 YJG       0.125000
     41 H30        119.6100   175.0870   144.5150 h4         1 YJG       0.019100
     42 H06        119.9740   179.9920   141.2630 hn         1 YJG       0.156000
     43 C01        124.0550   177.2710   137.4360 c3         1 YJG      -0.066800
     44 N23        121.6180   175.1600   138.6720 n7         1 YJG      -0.895300
     45 O21        121.4110   176.2940   136.4600 o          1 YJG      -0.545500
     46 O22        119.5710   176.6280   138.1000 o          1 YJG      -0.545500
     47 H28        122.3320   178.3850   144.6600 ha         1 YJG       0.132000
     48 H013       123.7690   177.4600   136.4030 hc         1 YJG       0.060700
     49 H011       125.0970   177.5610   137.5530 hc         1 YJG       0.060700
     50 H012       123.9860   176.1960   137.6030 hc         1 YJG       0.060700
     51 H23        121.5680   174.3110   138.1200 hn         1 YJG       0.490000
@<TRIPOS>BOND
     1     1     4 1   
     2     1    12 2   
     3     1    27 1   
     4     2     3 ar  
     5     2    18 ar  
     6     2    47 1   
     7     3    17 ar  
     8     3    28 1   
     9     4    21 1   
    10     4    25 2   
    11     5     6 ar  
    12     5    14 ar  
    13     5    43 1   
    14     6     7 ar  
    15     6    29 1   
    16     7     8 ar  
    17     7    30 1   
    18     8    13 ar  
    19     8    20 1   
    20     9    10 1   
    21     9    20 1   
    22     9    24 2   
    23    10    21 1   
    24    10    31 1   
    25    10    32 1   
    26    11    12 1   
    27    11    22 2   
    28    11    33 1   
    29    12    34 1   
    30    13    14 ar  
    31    13    35 1   
    32    14    26 1   
    33    15    16 1   
    34    15    36 1   
    35    15    37 1   
    36    15    44 1   
    37    16    17 1   
    38    16    38 1   
    39    16    39 1   
    40    17    23 ar  
    41    18    19 ar  
    42    18    40 1   
    43    19    23 ar  
    44    19    41 1   
    45    20    42 1   
    46    21    22 1   
    47    26    44 1   
    48    26    45 2   
    49    26    46 2   
    50    43    48 1   
    51    43    49 1   
    52    43    50 1   
    53    44    51 1   
@<TRIPOS>SUBSTRUCTURE
     1 YJG         1 TEMP              0 ****  ****    0 ROOT
