@<TRIPOS>MOLECULE
YJJ
   62    66     1     0     0
SMALL
abcg2


@<TRIPOS>ATOM
      1 O14        -28.0050     3.4510    31.6740 o          1 YJJ      -0.541100
      2 C01        -21.8720     1.2770    31.3470 c3         1 YJJ       0.079300
      3 C03        -23.4460     3.1250    31.2360 cc         1 YJJ       0.516800
      4 C05        -25.2710     3.0740    29.9930 cd         1 YJJ       0.131400
      5 C06        -25.0220     1.8080    29.4770 cc         1 YJJ      -0.249600
      6 C07        -23.8510     1.1180    29.9240 c          1 YJJ       0.600600
      7 C09        -26.1220     1.4790    28.6210 cc         1 YJJ      -0.019000
      8 C10        -26.9610     2.5610    28.6650 cd         1 YJJ      -0.172000
      9 C12        -27.0960     4.7380    29.8660 c3         1 YJJ      -0.012400
     10 C13        -27.9830     4.5070    31.0850 c          1 YJJ       0.592100
     11 C16        -29.6400     5.7530    32.4370 ca         1 YJJ       0.064000
     12 C17        -29.7370     4.8840    33.5120 ca         1 YJJ      -0.259000
     13 C18        -30.6980     5.1220    34.5120 ca         1 YJJ       0.646900
     14 C20        -31.3880     7.0290    33.4590 ca         1 YJJ       0.426900
     15 C21        -30.5070     6.8570    32.4130 ca         1 YJJ      -0.061000
     16 C24        -31.5440     4.7150    36.7660 c6         1 YJJ       0.176300
     17 C25        -32.1880     3.5480    37.4850 c6         1 YJJ       0.142600
     18 C27        -30.7090     2.0420    36.5550 c6         1 YJJ       0.142600
     19 C28        -29.9940     3.1300    35.7700 c6         1 YJJ       0.176300
     20 C29        -26.3800     0.2730    27.8300 ca         1 YJJ      -0.049000
     21 C30        -27.6880    -0.2050    27.6920 ca         1 YJJ      -0.042000
     22 C31        -28.0190    -1.3080    26.9210 ca         1 YJJ      -0.181300
     23 C32        -29.4400    -1.7770    26.8020 c3         1 YJJ      -0.048800
     24 C33        -26.9880    -1.9860    26.2620 ca         1 YJJ       0.184100
     25 C35        -25.6740    -1.5270    26.3920 ca         1 YJJ      -0.061000
     26 C36        -25.3720    -0.4070    27.1650 ca         1 YJJ      -0.003000
     27 C37        -24.6290    -2.2180    25.7150 cg         1 YJJ       0.344000
     28 N02        -23.0880     1.8840    30.8240 n          1 YJJ      -0.332300
     29 N04        -24.5070     3.7600    30.8640 nd         1 YJJ      -0.635100
     30 N11        -26.4360     3.5300    29.4790 na         1 YJJ       0.045000
     31 N15        -28.7210     5.6050    31.4100 ns         1 YJJ      -0.149000
     32 N19        -31.4900     6.1960    34.4780 nb         1 YJJ      -0.756000
     33 N23        -30.8800     4.2580    35.5560 nh         1 YJJ      -0.768300
     34 N38        -23.7730    -2.7680    25.1730 n1         1 YJJ      -0.462000
     35 O26        -31.2590     2.5240    37.7550 os         1 YJJ      -0.442000
     36 O34        -27.1800    -3.0700    25.5030 oh         1 YJJ      -0.521100
     37 CL22       -30.4830     7.9990    31.1120 cl         1 YJJ      -0.201000
     38 H1         -21.3920     1.9750    32.0270 h1         1 YJJ       0.055033
     39 H2         -22.1030     0.3630    31.8900 h1         1 YJJ       0.055033
     40 H3         -21.1810     1.0440    30.5400 h1         1 YJJ       0.055033
     41 H4         -22.7700     3.5980    31.9370 h5         1 YJJ       0.049800
     42 H5         -27.8910     2.7310    28.1450 h4         1 YJJ       0.153000
     43 H6         -26.3520     5.5030    30.0990 h1         1 YJJ       0.090700
     44 H7         -27.6880     5.1120    29.0290 h1         1 YJJ       0.090700
     45 H8         -29.0640     4.0480    33.5770 ha         1 YJJ       0.156000
     46 H9         -32.0490     7.8900    33.4640 h4         1 YJJ       0.031100
     47 H10        -30.8240     5.2120    37.4300 h1         1 YJJ       0.061450
     48 H11        -32.3110     5.4420    36.5120 h1         1 YJJ       0.061450
     49 H12        -32.5930     3.8890    38.4390 h1         1 YJJ       0.055200
     50 H13        -33.0220     3.1620    36.8810 h1         1 YJJ       0.055200
     51 H14        -31.4930     1.6020    35.9220 h1         1 YJJ       0.055200
     52 H15        -29.9980     1.2540    36.8060 h1         1 YJJ       0.055200
     53 H16        -29.6970     2.6890    34.8200 h1         1 YJJ       0.061450
     54 H17        -29.0810     3.4410    36.2940 h1         1 YJJ       0.061450
     55 H18        -28.4880     0.3010    28.2200 ha         1 YJJ       0.114000
     56 H19        -29.5700    -2.7940    27.1790 hc         1 YJJ       0.043700
     57 H20        -30.1050    -1.1330    27.3740 hc         1 YJJ       0.043700
     58 H21        -29.7870    -1.7630    25.7670 hc         1 YJJ       0.043700
     59 H22        -24.3470    -0.0720    27.2250 ha         1 YJJ       0.143000
     60 H23        -28.6260     6.4010    30.7940 hn         1 YJJ       0.165000
     61 H24        -28.1120    -3.3130    25.4500 ho         1 YJJ       0.474000
     62 O08        -23.4810    -0.0040    29.6190 o          1 YJJ      -0.533000
@<TRIPOS>BOND
     1     1    10 2   
     2     2    28 1   
     3     2    38 1   
     4     2    39 1   
     5     2    40 1   
     6     3    28 1   
     7     3    29 2   
     8     3    41 1   
     9     4     5 2   
    10     4    29 1   
    11     4    30 1   
    12     5     6 1   
    13     5     7 1   
    14     6    28 1   
    15     6    62 2   
    16     7     8 2   
    17     7    20 1   
    18     8    30 1   
    19     8    42 1   
    20     9    10 1   
    21     9    30 1   
    22     9    43 1   
    23     9    44 1   
    24    10    31 1   
    25    11    12 ar  
    26    11    15 ar  
    27    11    31 1   
    28    12    13 ar  
    29    12    45 1   
    30    13    32 ar  
    31    13    33 1   
    32    14    15 ar  
    33    14    32 ar  
    34    14    46 1   
    35    15    37 1   
    36    16    17 1   
    37    16    33 1   
    38    16    47 1   
    39    16    48 1   
    40    17    35 1   
    41    17    49 1   
    42    17    50 1   
    43    18    19 1   
    44    18    35 1   
    45    18    51 1   
    46    18    52 1   
    47    19    33 1   
    48    19    53 1   
    49    19    54 1   
    50    20    21 ar  
    51    20    26 ar  
    52    21    22 ar  
    53    21    55 1   
    54    22    23 1   
    55    22    24 ar  
    56    23    56 1   
    57    23    57 1   
    58    23    58 1   
    59    24    25 ar  
    60    24    36 1   
    61    25    26 ar  
    62    25    27 1   
    63    26    59 1   
    64    27    34 3   
    65    31    60 1   
    66    36    61 1   
@<TRIPOS>SUBSTRUCTURE
     1 YJJ         1 TEMP              0 ****  ****    0 ROOT
