@<TRIPOS>MOLECULE
YJJ
   62    66     1     0     0
SMALL
No Charge or Current Charge


@<TRIPOS>ATOM
      1 O14        -30.4280     3.8700    30.7590 o          1 YJJ      -0.541100
      2 C01        -22.2380     3.3270    30.4580 c3         1 YJJ       0.079300
      3 C03        -24.4280     4.4940    30.2750 cc         1 YJJ       0.516800
      4 C05        -26.3100     3.5260    29.4060 cd         1 YJJ       0.131400
      5 C06        -25.6260     2.3870    29.1260 cc         1 YJJ      -0.249600
      6 C07        -24.2160     2.2090    29.4900 c          1 YJJ       0.600600
      7 C09        -26.5430     1.4710    28.5330 cc         1 YJJ      -0.019000
      8 C10        -27.7760     2.0810    28.4530 cd         1 YJJ      -0.172000
      9 C12        -28.7010     4.3560    29.1550 c3         1 YJJ      -0.012400
     10 C13        -29.3150     4.3420    30.5530 c          1 YJJ       0.592100
     11 C16        -28.6920     5.0570    32.9390 ca         1 YJJ       0.064000
     12 C17        -29.7240     4.4350    33.6670 ca         1 YJJ      -0.259000
     13 C18        -29.8200     4.6310    35.0560 ca         1 YJJ       0.646900
     14 C20        -27.9570     5.9890    35.0520 ca         1 YJJ       0.426900
     15 C21        -27.7850     5.8510    33.6620 ca         1 YJJ      -0.061000
     16 C24        -30.5330     3.5020    37.2130 c6         1 YJJ       0.176300
     17 C25        -31.8020     3.3950    38.1080 c6         1 YJJ       0.142600
     18 C27        -33.2600     3.3590    36.2010 c6         1 YJJ       0.142600
     19 C28        -32.0640     3.4640    35.2090 c6         1 YJJ       0.176300
     20 C29        -26.3590     0.1760    27.8590 ca         1 YJJ      -0.049000
     21 C30        -27.4120    -0.7630    27.8290 ca         1 YJJ      -0.042000
     22 C31        -27.2680    -2.0080    27.1850 ca         1 YJJ      -0.181300
     23 C32        -28.4360    -2.9940    27.2010 c3         1 YJJ      -0.048800
     24 C33        -26.0500    -2.3170    26.5420 ca         1 YJJ       0.184100
     25 C35        -24.9980    -1.3780    26.5410 ca         1 YJJ      -0.061000
     26 C36        -25.1600    -0.1410    27.1910 ca         1 YJJ      -0.003000
     27 C37        -23.7560    -1.6540    25.8720 cg         1 YJJ       0.344000
     28 N02        -23.6620     3.3550    30.0590 n          1 YJJ      -0.332300
     29 N04        -25.7280     4.6360    29.9940 nd         1 YJJ      -0.635100
     30 N11        -27.6350     3.3560    29.0120 na         1 YJJ       0.045000
     31 N15        -28.5150     4.9060    31.5370 ns         1 YJJ      -0.149000
     32 N19        -28.9550     5.3940    35.7410 nb         1 YJJ      -0.756000
     33 N23        -30.8340     4.0470    35.8420 nh         1 YJJ      -0.768300
     34 N38        -22.7410    -1.8620    25.3320 n1         1 YJJ      -0.462000
     35 O26        -32.8610     2.6930    37.4200 os         1 YJJ      -0.442000
     36 O34        -25.9000    -3.5240    25.9130 oh         1 YJJ      -0.521100
     37 Cl22       -26.4450     6.6750    32.8550 cl         1 YJJ      -0.201000
     38 H1         -21.9230     4.3040    30.8460 h1         1 YJJ       0.055033
     39 H2         -22.0870     2.5710    31.2400 h1         1 YJJ       0.055033
     40 H3         -21.6140     3.0760    29.5910 h1         1 YJJ       0.055033
     41 H4         -23.8890     5.3160    30.7300 h5         1 YJJ       0.049800
     42 H5         -28.7080     1.7390    28.0190 h4         1 YJJ       0.153000
     43 H6         -28.2920     5.3540    28.9620 h1         1 YJJ       0.090700
     44 H7         -29.4930     4.1540    28.4250 h1         1 YJJ       0.090700
     45 H8         -30.4360     3.7860    33.1760 ha         1 YJJ       0.156000
     46 H9         -27.2690     6.6010    35.6340 h4         1 YJJ       0.031100
     47 H10        -30.0820     2.5030    37.1230 h1         1 YJJ       0.061450
     48 H11        -29.8080     4.1330    37.7480 h1         1 YJJ       0.061450
     49 H12        -31.5580     2.8600    39.0370 h1         1 YJJ       0.055200
     50 H13        -32.1520     4.4020    38.3790 h1         1 YJJ       0.055200
     51 H14        -33.6310     4.3650    36.4450 h1         1 YJJ       0.055200
     52 H15        -34.0820     2.7980    35.7360 h1         1 YJJ       0.055200
     53 H16        -32.3900     4.0830    34.3610 h1         1 YJJ       0.061450
     54 H17        -31.8440     2.4600    34.8160 h1         1 YJJ       0.061450
     55 H18        -28.3470    -0.5360    28.3370 ha         1 YJJ       0.114000
     56 H19        -28.1580    -3.9330    27.6960 hc         1 YJJ       0.043700
     57 H20        -29.3020    -2.5910    27.7410 hc         1 YJJ       0.043700
     58 H21        -28.7730    -3.2290    26.1840 hc         1 YJJ       0.043700
     59 H22        -24.3620     0.5930    27.1310 ha         1 YJJ       0.143000
     60 H23        -27.6270     5.2580    31.1990 hn         1 YJJ       0.165000
     61 H24        -26.7310    -4.0300    26.0210 ho         1 YJJ       0.474000
     62 O08        -23.5790     1.1740    29.3540 o          1 YJJ      -0.533000
@<TRIPOS>BOND
     1     1    10 2   
     2     2    28 1   
     3     2    38 1   
     4     2    39 1   
     5     2    40 1   
     6     3    28 1   
     7     3    29 2   
     8     3    41 1   
     9     4     5 2   
    10     4    29 1   
    11     4    30 1   
    12     5     6 1   
    13     5     7 1   
    14     6    28 1   
    15     6    62 2   
    16     7     8 2   
    17     7    20 1   
    18     8    30 1   
    19     8    42 1   
    20     9    10 1   
    21     9    30 1   
    22     9    43 1   
    23     9    44 1   
    24    10    31 1   
    25    11    12 ar  
    26    11    15 ar  
    27    11    31 1   
    28    12    13 ar  
    29    12    45 1   
    30    13    32 ar  
    31    13    33 1   
    32    14    15 ar  
    33    14    32 ar  
    34    14    46 1   
    35    15    37 1   
    36    16    17 1   
    37    16    33 1   
    38    16    47 1   
    39    16    48 1   
    40    17    35 1   
    41    17    49 1   
    42    17    50 1   
    43    18    19 1   
    44    18    35 1   
    45    18    51 1   
    46    18    52 1   
    47    19    33 1   
    48    19    53 1   
    49    19    54 1   
    50    20    21 ar  
    51    20    26 ar  
    52    21    22 ar  
    53    21    55 1   
    54    22    23 1   
    55    22    24 ar  
    56    23    56 1   
    57    23    57 1   
    58    23    58 1   
    59    24    25 ar  
    60    24    36 1   
    61    25    26 ar  
    62    25    27 1   
    63    26    59 1   
    64    27    34 3   
    65    31    60 1   
    66    36    61 1   
@<TRIPOS>SUBSTRUCTURE
     1 YJJ         1 TEMP              0 ****  ****    0 ROOT
