@<TRIPOS>MOLECULE
YJM
   31    31     1     0     0
SMALL
abcg2


@<TRIPOS>ATOM
      1 C01          0.9100     0.7960    -0.5010 c6         1 YJM       0.341300
      2 C02          1.8340    -0.3350    -0.0290 c6         1 YJM       0.207500
      3 C03          1.2280    -1.6920    -0.3800 c6         1 YJM       0.174300
      4 C04         -0.1990    -1.7730     0.1540 c6         1 YJM       0.088300
      5 C05         -1.0220    -0.5880    -0.3570 c6         1 YJM       0.147300
      6 C06         -2.4070    -0.5730     0.2500 c3         1 YJM       0.215600
      7 N07          3.1800    -0.2350    -0.5600 n7         1 YJM      -0.861300
      8 O08          2.0340    -2.6980     0.1770 oh         1 YJM      -0.631000
      9 O09         -0.7390    -3.0040    -0.2770 oh         1 YJM      -0.737000
     10 O10         -0.3890     0.6260     0.0010 os         1 YJM      -0.454000
     11 O11         -3.1490     0.4630    -0.3760 os         1 YJM      -0.583700
     12 S12          4.2790     0.7650     0.2460 s6         1 YJM       1.359700
     13 O13          5.5120     0.5820    -0.5310 o          1 YJM      -0.716200
     14 O14          3.7830     2.1550     0.2150 o          1 YJM      -0.716200
     15 O15          4.3280     0.2180     1.6090 o          1 YJM      -0.716200
     16 S16         -4.6910     0.7010     0.1380 s6         1 YJM       1.503300
     17 O17         -5.3690    -0.5870    -0.0300 o          1 YJM      -0.718533
     18 O18         -4.5810     1.1310     1.5340 o          1 YJM      -0.718533
     19 O19         -5.1250     1.7440    -0.7890 o          1 YJM      -0.718533
     20 O20          0.9400     0.8270    -1.8930 oh         1 YJM      -0.688000
     21 H01          1.2510     1.7440    -0.0770 h2         1 YJM       0.098700
     22 H02          1.8940    -0.2720     1.0620 h1         1 YJM       0.092700
     23 H03          1.1860    -1.7920    -1.4770 h1         1 YJM       0.044700
     24 H04         -0.1560    -1.7250     1.2520 h1         1 YJM       0.046700
     25 H05         -1.1180    -0.6750    -1.4480 h1         1 YJM       0.063700
     26 H06         -2.8850    -1.5420     0.0800 h1         1 YJM       0.031700
     27 H06A        -2.3360    -0.4110     1.3320 h1         1 YJM       0.031700
     28 HN07         3.1760    -0.0190    -1.5520 hn         1 YJM       0.442000
     29 HO08         1.6100    -3.5420    -0.0110 ho         1 YJM       0.424000
     30 HO09        -1.3610    -3.3250     0.3820 ho         1 YJM       0.499000
     31 HO20         0.6110     1.6790    -2.1990 ho         1 YJM       0.449000
@<TRIPOS>BOND
     1     1     2 1   
     2     1    10 1   
     3     1    20 1   
     4     1    21 1   
     5     2     3 1   
     6     2     7 1   
     7     2    22 1   
     8     3     4 1   
     9     3     8 1   
    10     3    23 1   
    11     4     5 1   
    12     4     9 1   
    13     4    24 1   
    14     5     6 1   
    15     5    10 1   
    16     5    25 1   
    17     6    11 1   
    18     6    26 1   
    19     6    27 1   
    20     7    12 1   
    21     7    28 1   
    22     8    29 1   
    23     9    30 1   
    24    11    16 1   
    25    12    13 1   
    26    12    14 1   
    27    12    15 1   
    28    16    17 1   
    29    16    18 1   
    30    16    19 1   
    31    20    31 1   
@<TRIPOS>SUBSTRUCTURE
     1 YJM         1 TEMP              0 ****  ****    0 ROOT
