@<TRIPOS>MOLECULE
YJM
   31    31     1     0     0
SMALL
No Charge or Current Charge


@<TRIPOS>ATOM
      1 C01          1.0410     0.8050    -0.2910 c6         1 YJM       0.341300
      2 C02          1.9650    -0.4250     0.0610 c6         1 YJM       0.207500
      3 C03          1.2700    -1.7450    -0.4280 c6         1 YJM       0.174300
      4 C04         -0.1900    -1.8490     0.1120 c6         1 YJM       0.088300
      5 C05         -0.9870    -0.5770    -0.3160 c6         1 YJM       0.147300
      6 C06         -2.4440    -0.5560     0.2480 c3         1 YJM       0.215600
      7 N07          3.3480    -0.2850    -0.5020 n7         1 YJM      -0.861300
      8 O08          1.9890    -2.9270    -0.0260 oh         1 YJM      -0.631000
      9 O09         -0.8020    -3.0700    -0.3720 oh         1 YJM      -0.737000
     10 O10         -0.3020     0.6040     0.1870 os         1 YJM      -0.454000
     11 O11         -3.1780     0.5370    -0.3340 os         1 YJM      -0.583700
     12 S12          4.3530     0.8900     0.0520 s6         1 YJM       1.359700
     13 O13          5.6140     0.1650     0.2200 o          1 YJM      -0.716200
     14 O14          4.2860     1.8160    -1.0750 o          1 YJM      -0.716200
     15 O15          3.7100     1.3510     1.2850 o          1 YJM      -0.716200
     16 S16         -4.7360     0.7010     0.1550 s6         1 YJM       1.503300
     17 O17         -5.3730    -0.5620    -0.2450 o          1 YJM      -0.718533
     18 O18         -4.6400     0.8920     1.6100 o          1 YJM      -0.718533
     19 O19         -5.2130     1.8810    -0.5810 o          1 YJM      -0.718533
     20 O20          0.9610     1.0330    -1.7020 oh         1 YJM      -0.688000
     21 H01          1.4510     1.7030     0.2000 h2         1 YJM       0.098700
     22 H02          2.0270    -0.4940     1.1570 h1         1 YJM       0.092700
     23 H03          1.2170    -1.7110    -1.5270 h1         1 YJM       0.044700
     24 H04         -0.1450    -1.8670     1.2120 h1         1 YJM       0.046700
     25 H05         -1.0470    -0.5350    -1.4130 h1         1 YJM       0.063700
     26 H06         -2.9270    -1.5110     0.0040 h1         1 YJM       0.031700
     27 H06A        -2.3940    -0.4680     1.3420 h1         1 YJM       0.031700
     28 HN07         3.2440     0.1250    -1.4250 hn         1 YJM       0.442000
     29 HO08         1.3380    -3.6540    -0.1430 ho         1 YJM       0.424000
     30 HO09        -1.4800    -3.3490     0.2880 ho         1 YJM       0.499000
     31 HO20         0.2740     1.7250    -1.8080 ho         1 YJM       0.449000
@<TRIPOS>BOND
     1     1     2 1   
     2     1    10 1   
     3     1    20 1   
     4     1    21 1   
     5     2     3 1   
     6     2     7 1   
     7     2    22 1   
     8     3     4 1   
     9     3     8 1   
    10     3    23 1   
    11     4     5 1   
    12     4     9 1   
    13     4    24 1   
    14     5     6 1   
    15     5    10 1   
    16     5    25 1   
    17     6    11 1   
    18     6    26 1   
    19     6    27 1   
    20     7    12 1   
    21     7    28 1   
    22     8    29 1   
    23     9    30 1   
    24    11    16 1   
    25    12    13 1   
    26    12    14 1   
    27    12    15 1   
    28    16    17 1   
    29    16    18 1   
    30    16    19 1   
    31    20    31 1   
@<TRIPOS>SUBSTRUCTURE
     1 YJM         1 TEMP              0 ****  ****    0 ROOT
