@<TRIPOS>MOLECULE
YJN
   43    45     1     0     0
SMALL
No Charge or Current Charge


@<TRIPOS>ATOM
      1 C13         -5.4650    20.7660   -25.4470 c3         1 YJN       0.157300
      2 C14         -4.2520    20.7830   -26.3640 ca         1 YJN      -0.097300
      3 C15         -4.1010    19.8030   -27.3620 ca         1 YJN      -0.092500
      4 C16         -2.9820    19.8230   -28.2130 ca         1 YJN      -0.091000
      5 C17         -1.9930    20.8280   -28.0940 cp         1 YJN      -0.048000
      6 C18         -2.1530    21.8020   -27.0780 ca         1 YJN      -0.091000
      7 C19         -3.2710    21.7830   -26.2260 ca         1 YJN      -0.092500
      8 C20         -0.8010    20.8290   -28.9990 cp         1 YJN       0.008000
      9 C21         -0.0120    19.6570   -29.0970 ca         1 YJN      -0.108000
     10 C22          1.1180    19.6050   -29.9290 ca         1 YJN      -0.089000
     11 C23          1.4790    20.7280   -30.6870 ca         1 YJN      -0.113000
     12 C24          0.7070    21.8990   -30.6170 ca         1 YJN      -0.075000
     13 C25         -0.4290    21.9600   -29.7840 ca         1 YJN      -0.007000
     14 C26         -1.2030    23.1740   -29.7850 cg         1 YJN       0.324000
     15 C02        -10.5250    22.6140   -28.6130 cc         1 YJN       0.165900
     16 C03        -10.5020    23.9470   -28.2760 cd         1 YJN      -0.408200
     17 C04         -9.4910    24.5290   -27.4040 c          1 YJN       0.556500
     18 O05         -9.4960    25.7210   -27.1210 o          1 YJN      -0.569100
     19 C06         -8.4680    23.5910   -26.8880 cc         1 YJN      -0.032100
     20 O07         -7.5400    24.1760   -26.0760 oh         1 YJN      -0.533100
     21 C08         -8.5130    22.2460   -27.2440 cd         1 YJN      -0.018100
     22 O09         -9.5290    21.8240   -28.0800 os         1 YJN      -0.162200
     23 C10         -7.5490    21.1810   -26.8030 c          1 YJN       0.633300
     24 O11         -7.6380    20.0090   -27.1480 o          1 YJN      -0.569100
     25 N12         -6.5390    21.6070   -25.9710 ns         1 YJN      -0.494900
     26 N27         -1.8210    24.1650   -29.7950 n1         1 YJN      -0.450000
     27 H1          -5.8270    19.7370   -25.3200 h1         1 YJN       0.058700
     28 H2          -5.1810    21.1400   -24.4540 h1         1 YJN       0.058700
     29 H3          -4.8520    19.0250   -27.4820 ha         1 YJN       0.117500
     30 H4          -2.8830    19.0590   -28.9800 ha         1 YJN       0.118500
     31 H5          -1.3990    22.5740   -26.9450 ha         1 YJN       0.118500
     32 H6          -3.3730    22.5460   -25.4570 ha         1 YJN       0.117500
     33 H7          -0.2780    18.7810   -28.5100 ha         1 YJN       0.122000
     34 H8           1.7130    18.6950   -29.9840 ha         1 YJN       0.118000
     35 H9           2.3540    20.6900   -31.3330 ha         1 YJN       0.121000
     36 H10          0.9920    22.7600   -31.2190 ha         1 YJN       0.126000
     37 H11        -11.0140    21.4670   -30.3620 hc         1 YJN       0.071033
     38 H12        -12.0310    21.1200   -28.9510 hc         1 YJN       0.071033
     39 H13        -12.2730    22.6150   -29.8730 hc         1 YJN       0.071033
     40 H14        -11.2430    24.6440   -28.6460 ha         1 YJN       0.219000
     41 H16         -7.7800    25.1340   -26.0200 ho         1 YJN       0.505000
     42 H18         -6.5450    22.5960   -25.7460 hn         1 YJN       0.339500
     43 C01        -11.5160    21.9170   -29.4980 c3         1 YJN      -0.059900
@<TRIPOS>BOND
     1     1     2 1   
     2     1    25 1   
     3     1    27 1   
     4     1    28 1   
     5     2     3 ar  
     6     2     7 ar  
     7     3     4 ar  
     8     3    29 1   
     9     4     5 ar  
    10     4    30 1   
    11     5     6 ar  
    12     5     8 1   
    13     6     7 ar  
    14     6    31 1   
    15     7    32 1   
    16     8     9 ar  
    17     8    13 ar  
    18     9    10 ar  
    19     9    33 1   
    20    10    11 ar  
    21    10    34 1   
    22    11    12 ar  
    23    11    35 1   
    24    12    13 ar  
    25    12    36 1   
    26    13    14 1   
    27    14    26 3   
    28    15    16 2   
    29    15    22 1   
    30    15    43 1   
    31    16    17 1   
    32    16    40 1   
    33    17    18 2   
    34    17    19 1   
    35    19    20 1   
    36    19    21 2   
    37    20    41 1   
    38    21    22 1   
    39    21    23 1   
    40    23    24 2   
    41    23    25 1   
    42    25    42 1   
    43    37    43 1   
    44    38    43 1   
    45    39    43 1   
@<TRIPOS>SUBSTRUCTURE
     1 YJN         1 TEMP              0 ****  ****    0 ROOT
