@<TRIPOS>MOLECULE
YJN
   43    45     1     0     0
SMALL
abcg2


@<TRIPOS>ATOM
      1 C13         -5.6040    20.4180   -25.5840 c3         1 YJN       0.157300
      2 C14         -4.3970    20.5260   -26.4830 ca         1 YJN      -0.097300
      3 C15         -3.8480    19.3950   -27.0740 ca         1 YJN      -0.092500
      4 C16         -2.7200    19.4880   -27.8760 ca         1 YJN      -0.091000
      5 C17         -2.1200    20.7220   -28.1140 cp         1 YJN      -0.048000
      6 C18         -2.6690    21.8570   -27.5170 ca         1 YJN      -0.091000
      7 C19         -3.7920    21.7590   -26.7120 ca         1 YJN      -0.092500
      8 C20         -0.9150    20.8110   -28.9620 cp         1 YJN       0.008000
      9 C21          0.1810    19.9910   -28.7100 ca         1 YJN      -0.108000
     10 C22          1.3290    20.0660   -29.4850 ca         1 YJN      -0.089000
     11 C23          1.4090    20.9680   -30.5380 ca         1 YJN      -0.113000
     12 C24          0.3300    21.7860   -30.8180 ca         1 YJN      -0.075000
     13 C25         -0.8250    21.7070   -30.0370 ca         1 YJN      -0.007000
     14 C26         -1.9340    22.5310   -30.4000 cg         1 YJN       0.324000
     15 C02        -10.1950    22.9000   -28.5760 cc         1 YJN       0.165900
     16 C03        -10.2710    24.1730   -28.1240 cd         1 YJN      -0.408200
     17 C04         -9.3340    24.6630   -27.1630 c          1 YJN       0.556500
     18 O05         -9.2990    25.7950   -26.6860 o          1 YJN      -0.569100
     19 C06         -8.3290    23.6840   -26.7340 cc         1 YJN      -0.032100
     20 O07         -7.4370    24.1080   -25.8400 oh         1 YJN      -0.533100
     21 C08         -8.3250    22.4330   -27.2430 cd         1 YJN      -0.018100
     22 O09         -9.2530    22.0640   -28.1520 os         1 YJN      -0.162200
     23 C10         -7.3560    21.3210   -26.9970 c          1 YJN       0.633300
     24 O11         -7.2730    20.4040   -27.7960 o          1 YJN      -0.569100
     25 N12         -6.6240    21.3990   -25.8780 ns         1 YJN      -0.494900
     26 N27         -2.8120    23.1990   -30.7320 n1         1 YJN      -0.450000
     27 H1          -6.0210    19.4110   -25.6390 h1         1 YJN       0.058700
     28 H2          -5.3060    20.5780   -24.5470 h1         1 YJN       0.058700
     29 H3          -4.3110    18.4280   -26.9160 ha         1 YJN       0.117500
     30 H4          -2.3160    18.5940   -28.3350 ha         1 YJN       0.118500
     31 H5          -2.2030    22.8240   -27.6590 ha         1 YJN       0.118500
     32 H6          -4.1970    22.6540   -26.2570 ha         1 YJN       0.117500
     33 H7           0.1380    19.2950   -27.8820 ha         1 YJN       0.122000
     34 H8           2.1670    19.4190   -29.2600 ha         1 YJN       0.118000
     35 H9           2.3040    21.0290   -31.1420 ha         1 YJN       0.121000
     36 H10          0.3710    22.4820   -31.6450 ha         1 YJN       0.126000
     37 H11        -10.5730    21.9120   -30.4270 hc         1 YJN       0.071033
     38 H12        -11.6480    21.4380   -29.1150 hc         1 YJN       0.071033
     39 H13        -11.8560    23.0090   -29.8970 hc         1 YJN       0.071033
     40 H14        -11.0510    24.8230   -28.4970 ha         1 YJN       0.219000
     41 H16         -7.6540    25.0330   -25.6290 ho         1 YJN       0.505000
     42 H18         -6.7450    22.1680   -25.2400 hn         1 YJN       0.339500
     43 C01        -11.1200    22.2840   -29.5600 c3         1 YJN      -0.059900
@<TRIPOS>BOND
     1     1     2 1   
     2     1    25 1   
     3     1    27 1   
     4     1    28 1   
     5     2     3 ar  
     6     2     7 ar  
     7     3     4 ar  
     8     3    29 1   
     9     4     5 ar  
    10     4    30 1   
    11     5     6 ar  
    12     5     8 1   
    13     6     7 ar  
    14     6    31 1   
    15     7    32 1   
    16     8     9 ar  
    17     8    13 ar  
    18     9    10 ar  
    19     9    33 1   
    20    10    11 ar  
    21    10    34 1   
    22    11    12 ar  
    23    11    35 1   
    24    12    13 ar  
    25    12    36 1   
    26    13    14 1   
    27    14    26 3   
    28    15    16 2   
    29    15    22 1   
    30    15    43 1   
    31    16    17 1   
    32    16    40 1   
    33    17    18 2   
    34    17    19 1   
    35    19    20 1   
    36    19    21 2   
    37    20    41 1   
    38    21    22 1   
    39    21    23 1   
    40    23    24 2   
    41    23    25 1   
    42    25    42 1   
    43    37    43 1   
    44    38    43 1   
    45    39    43 1   
@<TRIPOS>SUBSTRUCTURE
     1 YJN         1 TEMP              0 ****  ****    0 ROOT
