@<TRIPOS>MOLECULE
YJR
   50    53     1     0     0
SMALL
No Charge or Current Charge


@<TRIPOS>ATOM
      1 C1           8.1480   -14.8210     4.0640 ca         1 YJR      -0.202300
      2 C2           7.2960   -15.9380     3.9930 ca         1 YJR       0.219000
      3 C3           7.7250   -17.1320     3.3950 ca         1 YJR      -0.171500
      4 C11          9.4900   -20.9830     2.0960 ca         1 YJR      -0.112000
      5 C12          9.0590   -19.7870     2.6960 ca         1 YJR      -0.092500
      6 C13          7.6830   -13.5260     4.7150 c3         1 YJR       0.172300
      7 C17          7.6940   -12.4940     7.0120 c          1 YJR       0.534800
      8 C18          8.0880   -12.6640     8.4600 cc         1 YJR       0.205300
      9 C22          8.8370   -12.9810    11.2220 cc         1 YJR       0.148800
     10 C23          9.1110   -13.9750    10.3170 cd         1 YJR      -0.374200
     11 C24          8.7730   -13.9130     8.8990 c          1 YJR       0.481000
     12 C26          7.8760   -10.8320    11.4920 ca         1 YJR       0.208000
     13 C27          9.1880   -13.0480    12.6900 c3         1 YJR      -0.068900
     14 C28          8.7630    -9.7470    11.6900 ca         1 YJR       0.365900
     15 C30          7.3290    -8.7150    13.1960 ca         1 YJR       0.351900
     16 C4           9.0230   -17.2510     2.8440 cp         1 YJR       0.030000
     17 C5           9.8720   -16.1210     2.9210 ca         1 YJR      -0.171500
     18 C6           9.4420   -14.9280     3.5210 ca         1 YJR       0.219000
     19 C7           9.4820   -18.5260     2.2040 cp         1 YJR      -0.046000
     20 C8          10.3540   -18.5120     1.0850 ca         1 YJR      -0.092500
     21 C9          10.7840   -19.7080     0.4840 ca         1 YJR      -0.112000
     22 C10         10.3530   -20.9440     0.9890 ca         1 YJR      -0.101000
     23 N14          7.9920   -13.5250     6.1410 ns         1 YJR      -0.501900
     24 F15          6.0470   -15.8740     4.5050 f          1 YJR      -0.167000
     25 F16         10.2940   -13.8800     3.5790 f          1 YJR      -0.167000
     26 O19          7.1290   -11.4930     6.5790 o          1 YJR      -0.576100
     27 N20          7.7970   -11.6590     9.3030 nd         1 YJR      -0.310400
     28 N21          8.1870   -11.8830    10.6170 na         1 YJR      -0.328300
     29 O25          9.0680   -14.8660     8.1840 o          1 YJR      -0.571100
     30 N29          8.5070    -8.7050    12.5270 nb         1 YJR      -0.654000
     31 C31          6.3820    -9.7460    13.0560 ca         1 YJR      -0.158000
     32 C32          6.6540   -10.8220    12.1900 ca         1 YJR      -0.056000
     33 H1           7.0340   -17.9680     3.3480 ha         1 YJR       0.138500
     34 H2           9.1570   -21.9400     2.4920 ha         1 YJR       0.114500
     35 H3           8.4020   -19.8420     3.5610 ha         1 YJR       0.116000
     36 H4           8.1720   -12.6650     4.2410 h1         1 YJR       0.069700
     37 H5           6.5990   -13.4030     4.5820 h1         1 YJR       0.069700
     38 H6           9.6080   -14.8880    10.6190 ha         1 YJR       0.217000
     39 H7           9.6940   -13.9900    12.9310 hc         1 YJR       0.064367
     40 H8           9.8620   -12.2310    12.9750 hc         1 YJR       0.064367
     41 H9           8.2900   -12.9900    13.3150 hc         1 YJR       0.064367
     42 H10          9.7160    -9.7160    11.1630 h4         1 YJR       0.038100
     43 H11          7.1390    -7.8730    13.8600 h4         1 YJR       0.028100
     44 H12         10.8830   -16.1700     2.5270 ha         1 YJR       0.138500
     45 H13         10.6900   -17.5660     0.6680 ha         1 YJR       0.116000
     46 H14         11.4500   -19.6750    -0.3760 ha         1 YJR       0.114500
     47 H15         10.6860   -21.8700     0.5250 ha         1 YJR       0.114000
     48 H16          8.4610   -14.3370     6.5370 hn         1 YJR       0.360500
     49 H17          5.4510    -9.7050    13.6130 ha         1 YJR       0.134000
     50 H18          5.9390   -11.6300    12.0610 ha         1 YJR       0.135000
@<TRIPOS>BOND
     1     1     2 ar  
     2     1     6 1   
     3     1    18 ar  
     4     2     3 ar  
     5     2    24 1   
     6     3    16 ar  
     7     3    33 1   
     8     4     5 ar  
     9     4    22 ar  
    10     4    34 1   
    11     5    19 ar  
    12     5    35 1   
    13     6    23 1   
    14     6    36 1   
    15     6    37 1   
    16     7     8 1   
    17     7    23 1   
    18     7    26 2   
    19     8    11 1   
    20     8    27 2   
    21     9    10 2   
    22     9    13 1   
    23     9    28 1   
    24    10    11 1   
    25    10    38 1   
    26    11    29 2   
    27    12    14 ar  
    28    12    28 1   
    29    12    32 ar  
    30    13    39 1   
    31    13    40 1   
    32    13    41 1   
    33    14    30 ar  
    34    14    42 1   
    35    15    30 ar  
    36    15    31 ar  
    37    15    43 1   
    38    16    17 ar  
    39    16    19 1   
    40    17    18 ar  
    41    17    44 1   
    42    18    25 1   
    43    19    20 ar  
    44    20    21 ar  
    45    20    45 1   
    46    21    22 ar  
    47    21    46 1   
    48    22    47 1   
    49    23    48 1   
    50    27    28 1   
    51    31    32 ar  
    52    31    49 1   
    53    32    50 1   
@<TRIPOS>SUBSTRUCTURE
     1 YJR         1 TEMP              0 ****  ****    0 ROOT
