@<TRIPOS>MOLECULE
YJR
   50    53     1     0     0
SMALL
abcg2


@<TRIPOS>ATOM
      1 C1           6.8300   -15.0480     4.2770 ca         1 YJR      -0.202300
      2 C2           6.9050   -16.4120     4.5260 ca         1 YJR       0.219000
      3 C3           7.9360   -17.2180     4.0970 ca         1 YJR      -0.171500
      4 C11         11.7080   -19.2530     3.3580 ca         1 YJR      -0.112000
      5 C12         10.6280   -18.4800     3.7570 ca         1 YJR      -0.092500
      6 C13          5.7240   -14.2110     4.8700 c3         1 YJR       0.172300
      7 C17          6.8120   -13.3690     6.8720 c          1 YJR       0.534800
      8 C18          6.8960   -13.4540     8.3770 cc         1 YJR       0.205300
      9 C22          7.3430   -13.4200    11.0660 cc         1 YJR       0.148800
     10 C23          6.4060   -14.2830    10.5930 cd         1 YJR      -0.374200
     11 C24          6.0890   -14.3610     9.2000 c          1 YJR       0.481000
     12 C26          8.9770   -11.6680    10.5860 ca         1 YJR       0.208000
     13 C27          7.7080   -13.3200    12.5080 c3         1 YJR      -0.068900
     14 C28         10.3200   -11.9910    10.4750 ca         1 YJR       0.365900
     15 C30         10.9330    -9.9650    11.3070 ca         1 YJR       0.351900
     16 C4           8.9800   -16.6520     3.3650 cp         1 YJR       0.030000
     17 C5           8.9300   -15.2930     3.0650 ca         1 YJR      -0.171500
     18 C6           7.8690   -14.5340     3.5180 ca         1 YJR       0.219000
     19 C7          10.1210   -17.4790     2.9270 cp         1 YJR      -0.046000
     20 C8          10.7260   -17.2730     1.6860 ca         1 YJR      -0.092500
     21 C9          11.8060   -18.0460     1.2870 ca         1 YJR      -0.112000
     22 C10         12.3020   -19.0390     2.1220 ca         1 YJR      -0.101000
     23 N14          5.8480   -14.1070     6.3070 ns         1 YJR      -0.501900
     24 F15          5.9050   -16.9720     5.2220 f          1 YJR      -0.167000
     25 F16          7.8520   -13.2340     3.2010 f          1 YJR      -0.167000
     26 O19          7.5820   -12.6640     6.2420 o          1 YJR      -0.576100
     27 N20          7.7730   -12.6460     8.8790 nd         1 YJR      -0.310400
     28 N21          7.9880   -12.6140    10.1740 na         1 YJR      -0.328300
     29 O25          5.2300   -15.1210     8.7420 o          1 YJR      -0.571100
     30 N29         11.2830   -11.1530    10.8280 nb         1 YJR      -0.654000
     31 C31          9.6150    -9.5560    11.4510 ca         1 YJR      -0.158000
     32 C32          8.6070   -10.4290    11.0780 ca         1 YJR      -0.056000
     33 H1           7.9150   -18.2770     4.3190 ha         1 YJR       0.138500
     34 H2          12.0920   -20.0180     4.0200 ha         1 YJR       0.114500
     35 H3          10.1910   -18.6450     4.7340 ha         1 YJR       0.116000
     36 H4           5.7170   -13.2190     4.4240 h1         1 YJR       0.069700
     37 H5           4.7540   -14.6560     4.6560 h1         1 YJR       0.069700
     38 H6           5.8870   -14.9320    11.2860 ha         1 YJR       0.217000
     39 H7           7.1480   -14.0580    13.0760 hc         1 YJR       0.064367
     40 H8           8.7720   -13.5040    12.6620 hc         1 YJR       0.064367
     41 H9           7.4810   -12.3340    12.9130 hc         1 YJR       0.064367
     42 H10         10.6170   -12.9600    10.0880 h4         1 YJR       0.038100
     43 H11         11.7420    -9.3020    11.5910 h4         1 YJR       0.028100
     44 H12          9.7240   -14.8130     2.5080 ha         1 YJR       0.138500
     45 H13         10.3380   -16.5150     1.0160 ha         1 YJR       0.116000
     46 H14         12.2560   -17.8760     0.3180 ha         1 YJR       0.114500
     47 H15         13.1450   -19.6410     1.8100 ha         1 YJR       0.114000
     48 H16          5.3030   -14.7110     6.9130 hn         1 YJR       0.360500
     49 H17          9.3850    -8.5750    11.8420 ha         1 YJR       0.134000
     50 H18          7.5630   -10.1560    11.1660 ha         1 YJR       0.135000
@<TRIPOS>BOND
     1     1     2 ar  
     2     1     6 1   
     3     1    18 ar  
     4     2     3 ar  
     5     2    24 1   
     6     3    16 ar  
     7     3    33 1   
     8     4     5 ar  
     9     4    22 ar  
    10     4    34 1   
    11     5    19 ar  
    12     5    35 1   
    13     6    23 1   
    14     6    36 1   
    15     6    37 1   
    16     7     8 1   
    17     7    23 1   
    18     7    26 2   
    19     8    11 1   
    20     8    27 2   
    21     9    10 2   
    22     9    13 1   
    23     9    28 1   
    24    10    11 1   
    25    10    38 1   
    26    11    29 2   
    27    12    14 ar  
    28    12    28 1   
    29    12    32 ar  
    30    13    39 1   
    31    13    40 1   
    32    13    41 1   
    33    14    30 ar  
    34    14    42 1   
    35    15    30 ar  
    36    15    31 ar  
    37    15    43 1   
    38    16    17 ar  
    39    16    19 1   
    40    17    18 ar  
    41    17    44 1   
    42    18    25 1   
    43    19    20 ar  
    44    20    21 ar  
    45    20    45 1   
    46    21    22 ar  
    47    21    46 1   
    48    22    47 1   
    49    23    48 1   
    50    27    28 1   
    51    31    32 ar  
    52    31    49 1   
    53    32    50 1   
@<TRIPOS>SUBSTRUCTURE
     1 YJR         1 TEMP              0 ****  ****    0 ROOT
