@<TRIPOS>MOLECULE
YJS
   65    69     1     0     0
SMALL
No Charge or Current Charge


@<TRIPOS>ATOM
      1 N11         -7.6840     0.6070   196.6870 ns         1 YJS      -0.146000
      2 C12         -7.0360     0.0060   195.6170 c          1 YJS       0.595100
      3 O13         -7.6100    -0.5380   194.6800 o          1 YJS      -0.546100
      4 C01        -12.6530    -2.6100   196.7720 c3         1 YJS      -0.114100
      5 C02        -12.4440    -1.6810   195.5450 c6         1 YJS       0.190500
      6 C03        -13.4600    -1.9940   194.3990 c6         1 YJS       0.147600
      7 C05        -14.8510    -0.1250   194.9700 c6         1 YJS       0.140600
      8 C06        -13.9110     0.2900   196.1390 c6         1 YJS       0.179800
      9 C08        -11.4370     0.3350   196.6840 ca         1 YJS       0.647900
     10 C09        -10.1050     0.1540   196.2810 ca         1 YJS      -0.262000
     11 C10         -9.0600     0.7460   197.0170 ca         1 YJS       0.064000
     12 C14         -5.5120     0.0670   195.6850 c3         1 YJS      -0.011400
     13 C16         -4.5560    -2.1850   196.3810 cc         1 YJS      -0.157000
     14 C17         -4.0870    -2.7270   197.5560 cd         1 YJS      -0.027000
     15 C18         -4.3450    -1.7790   198.5990 cd         1 YJS      -0.249600
     16 C19         -4.8360    -0.6490   198.0240 cc         1 YJS       0.125400
     17 C21         -5.0180     0.4360   200.0270 cd         1 YJS       0.515800
     18 C24         -4.2330    -1.8620   200.0710 c          1 YJS       0.602600
     19 C26         -3.5870    -4.1150   197.6560 ca         1 YJS      -0.048000
     20 C27         -2.5920    -4.4770   198.5860 ca         1 YJS       0.011000
     21 C28         -2.1030    -5.8020   198.6790 ca         1 YJS      -0.252600
     22 C29         -1.0810    -6.0890   199.7480 c          1 YJS       0.606700
     23 C32         -2.5950    -6.7740   197.7720 ca         1 YJS       0.190100
     24 C34         -3.5760    -6.4110   196.8230 ca         1 YJS       0.057000
     25 C36         -4.0590    -5.0960   196.7630 ca         1 YJS      -0.038000
     26 C37         -9.4220     1.5070   198.1420 ca         1 YJS      -0.061000
     27 C39        -10.7850     1.6450   198.4640 ca         1 YJS       0.426900
     28 N07        -12.5110    -0.2440   195.9810 nh         1 YJS      -0.767300
     29 N15         -4.9660    -0.8850   196.6620 na         1 YJS       0.044000
     30 N20         -5.1850     0.4870   198.7040 nc         1 YJS      -0.635100
     31 N22         -4.5730    -0.6740   200.7280 n          1 YJS      -0.333300
     32 N30         -1.0110    -7.3380   200.2560 nt         1 YJS      -0.603000
     33 N40        -11.7800     1.0750   197.7500 nb         1 YJS      -0.759000
     34 O04        -14.7920    -1.5500   194.7430 os         1 YJS      -0.440000
     35 O31         -0.3090    -5.2390   200.1540 o          1 YJS      -0.568100
     36 O33         -2.0920    -8.0470   197.7440 oh         1 YJS      -0.521100
     37 Cl35        -4.2030    -7.5920   195.6680 cl         1 YJS      -0.182000
     38 Cl38        -8.1990     2.2990   199.1430 cl         1 YJS      -0.201000
     39 H111        -7.0590     1.0050   197.3790 hn         1 YJS       0.166000
     40 H011       -12.5670    -3.6640   196.4830 hc         1 YJS       0.047700
     41 H012       -11.9010    -2.4200   197.5460 hc         1 YJS       0.047700
     42 H013       -13.6420    -2.4690   197.2230 hc         1 YJS       0.047700
     43 H021       -11.4490    -1.9090   195.1390 h1         1 YJS       0.069700
     44 H031       -13.4810    -3.0750   194.1990 h1         1 YJS       0.055200
     45 H032       -13.1420    -1.4890   193.4760 h1         1 YJS       0.055200
     46 H051       -15.8860     0.1610   195.2050 h1         1 YJS       0.054200
     47 H052       -14.5550     0.4000   194.0500 h1         1 YJS       0.054200
     48 H061       -13.9000     1.3890   196.1830 h1         1 YJS       0.065200
     49 H062       -14.3460    -0.0670   197.0840 h1         1 YJS       0.065200
     50 H091        -9.9080    -0.4340   195.3960 ha         1 YJS       0.158000
     51 H142        -5.1090    -0.1570   194.6920 h1         1 YJS       0.089200
     52 H141        -5.2130     1.0850   195.9620 h1         1 YJS       0.089200
     53 H161        -4.5930    -2.5950   195.3790 h4         1 YJS       0.156000
     54 H211        -5.2650     1.3110   200.6160 h5         1 YJS       0.049800
     55 H231        -4.7310     0.3760   202.5760 h1         1 YJS       0.054700
     56 H233        -5.1700    -1.3530   202.6440 h1         1 YJS       0.054700
     57 H232        -3.4540    -0.8680   202.5170 h1         1 YJS       0.054700
     58 H271        -2.1680    -3.7130   199.2300 ha         1 YJS       0.142000
     59 H361        -4.8160    -4.8480   196.0240 ha         1 YJS       0.133000
     60 H391       -11.0900     2.2360   199.3270 h4         1 YJS       0.030100
     61 H301        -0.3390    -7.5350   200.9830 hn         1 YJS       0.303500
     62 H302        -1.7060    -8.0250   200.0010 hn         1 YJS       0.303500
     63 H331        -1.1340    -8.0090   197.9520 ho         1 YJS       0.489000
     64 O25         -3.9040    -2.8660   200.6860 o          1 YJS      -0.537000
     65 C23         -4.4770    -0.6250   202.2030 c3         1 YJS       0.079300
@<TRIPOS>BOND
     1     1     2 1   
     2     1    11 1   
     3     1    39 1   
     4     2     3 2   
     5     2    12 1   
     6     4     5 1   
     7     4    40 1   
     8     4    41 1   
     9     4    42 1   
    10     5     6 1   
    11     5    28 1   
    12     5    43 1   
    13     6    34 1   
    14     6    44 1   
    15     6    45 1   
    16     7     8 1   
    17     7    34 1   
    18     7    46 1   
    19     7    47 1   
    20     8    28 1   
    21     8    48 1   
    22     8    49 1   
    23     9    10 ar  
    24     9    28 1   
    25     9    33 ar  
    26    10    11 ar  
    27    10    50 1   
    28    11    26 ar  
    29    12    29 1   
    30    12    51 1   
    31    12    52 1   
    32    13    14 2   
    33    13    29 1   
    34    13    53 1   
    35    14    15 1   
    36    14    19 1   
    37    15    16 2   
    38    15    18 1   
    39    16    29 1   
    40    16    30 1   
    41    17    30 2   
    42    17    31 1   
    43    17    54 1   
    44    18    31 1   
    45    18    64 2   
    46    19    20 ar  
    47    19    25 ar  
    48    20    21 ar  
    49    20    58 1   
    50    21    22 1   
    51    21    23 ar  
    52    22    32 1   
    53    22    35 2   
    54    23    24 ar  
    55    23    36 1   
    56    24    25 ar  
    57    24    37 1   
    58    25    59 1   
    59    26    27 ar  
    60    26    38 1   
    61    27    33 ar  
    62    27    60 1   
    63    31    65 1   
    64    32    61 1   
    65    32    62 1   
    66    36    63 1   
    67    55    65 1   
    68    56    65 1   
    69    57    65 1   
@<TRIPOS>SUBSTRUCTURE
     1 YJS         1 TEMP              0 ****  ****    0 ROOT
