@<TRIPOS>MOLECULE
YJS
   65    69     1     0     0
SMALL
bcc


@<TRIPOS>ATOM
      1 N11         -7.8590     1.3370   196.5260 ns         1 YJS      -0.472100
      2 C12         -7.2160     0.1780   196.8360 c          1 YJS       0.662100
      3 O13         -7.7420    -0.9030   196.9580 o          1 YJS      -0.546100
      4 C01        -12.1340    -1.9150   197.3840 c3         1 YJS      -0.114100
      5 C02        -12.0770    -1.5750   195.8970 c6         1 YJS       0.190500
      6 C03        -12.9980    -2.4520   195.0550 c6         1 YJS       0.124400
      7 C05        -14.6270    -0.8340   194.8980 c6         1 YJS       0.117400
      8 C06        -13.8130     0.1530   195.7090 c6         1 YJS       0.179800
      9 C08        -11.4690     0.8100   195.8470 ca         1 YJS       0.713200
     10 C09        -10.1200     0.5080   196.1130 ca         1 YJS      -0.345300
     11 C10         -9.2060     1.5370   196.2670 ca         1 YJS       0.156600
     12 C14         -5.7120     0.3660   197.0010 c3         1 YJS      -0.040700
     13 C16         -4.6340    -1.8880   197.0360 cc         1 YJS      -0.124300
     14 C17         -4.2550    -2.8070   197.9780 cd         1 YJS      -0.027000
     15 C18         -4.5510    -2.2100   199.2440 cd         1 YJS      -0.249600
     16 C19         -5.0980    -0.9610   198.9900 cc         1 YJS       0.176100
     17 C21         -5.4410    -0.4850   201.1190 cd         1 YJS       0.515800
     18 C24         -4.4680    -2.6520   200.6010 c          1 YJS       0.745100
     19 C26         -3.6640    -4.1170   197.6940 ca         1 YJS      -0.048000
     20 C27         -2.5310    -4.5660   198.3590 ca         1 YJS      -0.007000
     21 C28         -1.9620    -5.8050   198.0870 ca         1 YJS      -0.252600
     22 C29         -0.7160    -6.1750   198.8240 c          1 YJS       0.673700
     23 C32         -2.5110    -6.6270   197.0920 ca         1 YJS       0.190100
     24 C34         -3.6410    -6.1610   196.4150 ca         1 YJS      -0.034600
     25 C36         -4.2130    -4.9400   196.7110 ca         1 YJS      -0.056000
     26 C37         -9.6820     2.8530   196.1490 ca         1 YJS      -0.217900
     27 C39        -11.0230     3.0510   195.9070 ca         1 YJS       0.492200
     28 N07        -12.3960    -0.1730   195.6390 nh         1 YJS      -0.767300
     29 N15         -5.1240    -0.7650   197.6510 na         1 YJS      -0.028100
     30 N20         -5.5490    -0.0750   199.8990 nc         1 YJS      -0.635100
     31 N22         -4.9390    -1.6830   201.5060 n          1 YJS      -0.400300
     32 N30         -0.6240    -7.4840   199.1830 nt         1 YJS      -0.670000
     33 N40        -11.8980     2.0710   195.7670 nb         1 YJS      -0.759000
     34 O04        -14.3570    -2.1660   195.2690 os         1 YJS      -0.393600
     35 O31          0.1650    -5.3640   199.0350 o          1 YJS      -0.568100
     36 O33         -2.0160    -7.8090   196.7150 oh         1 YJS      -0.482100
     37 CL35        -4.3350    -7.1550   195.1830 cl         1 YJS      -0.090400
     38 CL38        -8.6290     4.2160   196.3270 cl         1 YJS      -0.109400
     39 H111        -7.2870     2.1710   196.5210 hn         1 YJS       0.332500
     40 H011       -11.8460    -2.9540   197.5470 hc         1 YJS       0.047700
     41 H012       -11.4520    -1.2860   197.9570 hc         1 YJS       0.047700
     42 H013       -13.1380    -1.7770   197.7870 hc         1 YJS       0.047700
     43 H021       -11.0740    -1.7800   195.5200 h1         1 YJS       0.069700
     44 H031       -12.8330    -3.4990   195.3140 h1         1 YJS       0.055200
     45 H032       -12.7420    -2.3220   193.9940 h1         1 YJS       0.055200
     46 H051       -15.6900    -0.6520   195.0640 h1         1 YJS       0.054200
     47 H052       -14.4220    -0.6880   193.8280 h1         1 YJS       0.054200
     48 H061       -13.9750     1.1510   195.3100 h1         1 YJS       0.065200
     49 H062       -14.1590     0.1610   196.7500 h1         1 YJS       0.065200
     50 H091        -9.7830    -0.5080   196.2060 ha         1 YJS       0.176000
     51 H142        -5.2610     0.4910   196.0140 h1         1 YJS       0.089200
     52 H141        -5.4910     1.2720   197.5680 h1         1 YJS       0.089200
     53 H161        -4.5600    -1.9370   195.9610 h4         1 YJS       0.174000
     54 H211        -5.7740     0.1630   201.9210 h5         1 YJS       0.049800
     55 H231        -5.2580    -1.1730   203.4980 h1         1 YJS       0.054700
     56 H233        -5.5190    -2.8820   203.1340 h1         1 YJS       0.054700
     57 H232        -3.8730    -2.2360   203.2310 h1         1 YJS       0.054700
     58 H271        -2.0710    -3.9390   199.1110 ha         1 YJS       0.160000
     59 H361        -5.1030    -4.6280   196.1790 ha         1 YJS       0.151000
     60 H391       -11.4070     4.0630   195.8290 h4         1 YJS       0.030100
     61 H301         0.1800    -7.7520   199.7330 hn         1 YJS       0.303500
     62 H302        -1.4680    -7.9870   199.4190 hn         1 YJS       0.303500
     63 H331        -1.2420    -8.0490   197.2500 ho         1 YJS       0.450000
     64 O25         -4.0570    -3.7240   201.0140 o          1 YJS      -0.612500
     65 C23         -4.8930    -2.0180   202.9230 c3         1 YJS       0.079300
@<TRIPOS>BOND
     1     1     2 1   
     2     1    11 1   
     3     1    39 1   
     4     2     3 2   
     5     2    12 1   
     6     4     5 1   
     7     4    40 1   
     8     4    41 1   
     9     4    42 1   
    10     5     6 1   
    11     5    28 1   
    12     5    43 1   
    13     6    34 1   
    14     6    44 1   
    15     6    45 1   
    16     7     8 1   
    17     7    34 1   
    18     7    46 1   
    19     7    47 1   
    20     8    28 1   
    21     8    48 1   
    22     8    49 1   
    23     9    10 ar  
    24     9    28 1   
    25     9    33 ar  
    26    10    11 ar  
    27    10    50 1   
    28    11    26 ar  
    29    12    29 1   
    30    12    51 1   
    31    12    52 1   
    32    13    14 2   
    33    13    29 1   
    34    13    53 1   
    35    14    15 1   
    36    14    19 1   
    37    15    16 2   
    38    15    18 1   
    39    16    29 1   
    40    16    30 1   
    41    17    30 2   
    42    17    31 1   
    43    17    54 1   
    44    18    31 1   
    45    18    64 2   
    46    19    20 ar  
    47    19    25 ar  
    48    20    21 ar  
    49    20    58 1   
    50    21    22 1   
    51    21    23 ar  
    52    22    32 1   
    53    22    35 2   
    54    23    24 ar  
    55    23    36 1   
    56    24    25 ar  
    57    24    37 1   
    58    25    59 1   
    59    26    27 ar  
    60    26    38 1   
    61    27    33 ar  
    62    27    60 1   
    63    31    65 1   
    64    32    61 1   
    65    32    62 1   
    66    36    63 1   
    67    55    65 1   
    68    56    65 1   
    69    57    65 1   
@<TRIPOS>SUBSTRUCTURE
     1 YJS         1 TEMP              0 ****  ****    0 ROOT
