@<TRIPOS>MOLECULE
YJU
   61    64     1     0     0
SMALL
No Charge or Current Charge


@<TRIPOS>ATOM
      1 N1         -80.2540   -46.3080    46.4870 nc         1 YJU      -0.290400
      2 N3         -77.3490   -45.9220    41.6760 ns         1 YJU      -0.133000
      3 C4         -78.7930   -44.8060    43.3470 ca         1 YJU      -0.124300
      4 C5         -79.5430   -44.8870    44.5570 ca         1 YJU      -0.057000
      5 C6         -79.5730   -46.0790    45.2910 ca         1 YJU      -0.084000
      6 C7         -79.1150   -48.1940    45.7970 cc         1 YJU      -0.197100
      7 C8         -78.8860   -47.1680    44.8450 ca         1 YJU      -0.129000
      8 C10        -78.0890   -45.9790    42.8950 ca         1 YJU      -0.048000
      9 C13        -75.2650   -47.1610    38.8140 ca         1 YJU      -0.082000
     10 C15        -74.9540   -45.3120    37.2940 ca         1 YJU      -0.099000
     11 C17        -76.0260   -43.0440    37.7930 c3         1 YJU       0.266700
     12 C20        -81.8850   -50.2770    48.8470 c6         1 YJU      -0.070400
     13 C21        -80.7270   -50.7300    49.7850 c6         1 YJU      -0.068700
     14 C22        -81.2490   -51.4540    51.0610 c3         1 YJU       0.167600
     15 C24        -79.2920   -48.7930    48.9020 c6         1 YJU      -0.089400
     16 C1         -79.3120   -42.2460    43.3070 c3         1 YJU      -0.100600
     17 C2         -78.7690   -43.4750    42.5340 c3         1 YJU       0.228300
     18 C3         -79.5620   -43.6200    41.2120 c3         1 YJU      -0.100600
     19 O1         -77.4190   -43.1480    42.2060 oh         1 YJU      -0.663000
     20 N2         -79.9420   -47.6430    46.7720 na         1 YJU       0.153500
     21 C9         -78.1400   -47.1670    43.6670 ca         1 YJU      -0.073000
     22 C11        -76.6600   -46.8710    40.9240 c          1 YJU       0.511600
     23 O2         -76.5560   -48.0530    41.2460 o          1 YJU      -0.596100
     24 C12        -76.0470   -46.3190    39.6360 ca         1 YJU       0.288500
     25 C14        -74.7080   -46.6530    37.6290 ca         1 YJU      -0.088000
     26 C16        -75.7480   -44.5190    38.1460 ca         1 YJU       0.239300
     27 N4         -76.2790   -45.0160    39.2950 nb         1 YJU      -0.626000
     28 F1         -76.3990   -42.8990    36.5000 f          1 YJU      -0.104000
     29 F2         -77.0120   -42.4900    38.5410 f          1 YJU      -0.104000
     30 F3         -74.9250   -42.2770    37.9700 f          1 YJU      -0.104000
     31 C18        -80.4530   -48.3440    47.9740 c6         1 YJU       0.083300
     32 C19        -81.3470   -49.5530    47.5870 c6         1 YJU      -0.089400
     33 O3         -81.9430   -52.6680    50.7490 oh         1 YJU      -0.662000
     34 C23        -79.8320   -49.5160    50.1620 c6         1 YJU      -0.070400
     35 H1         -77.3170   -44.9920    41.2690 hn         1 YJU       0.207000
     36 H2         -80.1090   -44.0460    44.9430 ha         1 YJU       0.126000
     37 H3         -78.7760   -49.2210    45.8620 h4         1 YJU       0.230000
     38 H4         -75.0920   -48.1960    39.0960 ha         1 YJU       0.155000
     39 H5         -74.5340   -44.8900    36.3840 ha         1 YJU       0.141000
     40 H6         -82.5670   -49.6090    49.3920 hc         1 YJU       0.049950
     41 H7         -82.4830   -51.1440    48.5370 hc         1 YJU       0.049950
     42 H8         -80.1060   -51.4620    49.2490 hc         1 YJU       0.061700
     43 H9         -80.3910   -51.6760    51.7100 h1         1 YJU       0.018700
     44 H10        -81.9100   -50.7700    51.6100 h1         1 YJU       0.018700
     45 H11        -78.6100   -49.4630    48.3610 hc         1 YJU       0.056700
     46 H12        -78.6970   -47.9190    49.2040 hc         1 YJU       0.056700
     47 H13        -78.8000   -42.1240    44.2690 hc         1 YJU       0.046533
     48 H14        -79.1610   -41.3250    42.7300 hc         1 YJU       0.046533
     49 H15        -80.3890   -42.3380    43.4930 hc         1 YJU       0.046533
     50 H16        -80.6090   -43.8720    41.4210 hc         1 YJU       0.046533
     51 H17        -79.5460   -42.6830    40.6430 hc         1 YJU       0.046533
     52 H18        -79.1520   -44.4040    40.5660 hc         1 YJU       0.046533
     53 H19        -76.9410   -43.0640    43.0580 ho         1 YJU       0.449000
     54 H20        -77.6190   -48.0740    43.3810 ha         1 YJU       0.139000
     55 H21        -74.1000   -47.2850    36.9850 ha         1 YJU       0.132000
     56 H22        -81.0740   -47.6280    48.5310 h1         1 YJU       0.084700
     57 H23        -82.1890   -49.2110    46.9700 hc         1 YJU       0.056700
     58 H24        -80.7780   -50.2640    46.9730 hc         1 YJU       0.056700
     59 H25        -82.2340   -53.0580    51.6030 ho         1 YJU       0.445000
     60 H26        -78.9870   -49.8500    50.7810 hc         1 YJU       0.049950
     61 H27        -80.4040   -48.8060    50.7760 hc         1 YJU       0.049950
@<TRIPOS>BOND
     1     1     5 2   
     2     1    20 1   
     3     2     8 1   
     4     2    22 1   
     5     2    35 1   
     6     3     4 ar  
     7     3     8 ar  
     8     3    17 1   
     9     4     5 ar  
    10     4    36 1   
    11     5     7 ar  
    12     6     7 2   
    13     6    20 1   
    14     6    37 1   
    15     7    21 ar  
    16     8    21 ar  
    17     9    24 ar  
    18     9    25 ar  
    19     9    38 1   
    20    10    25 ar  
    21    10    26 ar  
    22    10    39 1   
    23    11    26 1   
    24    11    28 1   
    25    11    29 1   
    26    11    30 1   
    27    12    13 1   
    28    12    32 1   
    29    12    40 1   
    30    12    41 1   
    31    13    14 1   
    32    13    34 1   
    33    13    42 1   
    34    14    33 1   
    35    14    43 1   
    36    14    44 1   
    37    15    31 1   
    38    15    34 1   
    39    15    45 1   
    40    15    46 1   
    41    16    17 1   
    42    16    47 1   
    43    16    48 1   
    44    16    49 1   
    45    17    18 1   
    46    17    19 1   
    47    18    50 1   
    48    18    51 1   
    49    18    52 1   
    50    19    53 1   
    51    20    31 1   
    52    21    54 1   
    53    22    23 2   
    54    22    24 1   
    55    24    27 ar  
    56    25    55 1   
    57    26    27 ar  
    58    31    32 1   
    59    31    56 1   
    60    32    57 1   
    61    32    58 1   
    62    33    59 1   
    63    34    60 1   
    64    34    61 1   
@<TRIPOS>SUBSTRUCTURE
     1 YJU         1 TEMP              0 ****  ****    0 ROOT
