@<TRIPOS>MOLECULE
YJU
   61    64     1     0     0
SMALL
abcg2


@<TRIPOS>ATOM
      1 N1         -80.3560   -46.6720    46.2330 nc         1 YJU      -0.290400
      2 N3         -77.4200   -45.9280    41.6270 ns         1 YJU      -0.133000
      3 C4         -78.8400   -44.9420    43.3610 ca         1 YJU      -0.124300
      4 C5         -79.5860   -45.0840    44.5000 ca         1 YJU      -0.057000
      5 C6         -79.6910   -46.3450    45.1210 ca         1 YJU      -0.084000
      6 C7         -79.3180   -48.4990    45.4580 cc         1 YJU      -0.197100
      7 C8         -79.0130   -47.4620    44.5810 ca         1 YJU      -0.129000
      8 C10        -78.1710   -46.1000    42.8040 ca         1 YJU      -0.048000
      9 C13        -76.1670   -47.1120    38.3990 ca         1 YJU      -0.082000
     10 C15        -75.0750   -45.2550    37.3640 ca         1 YJU      -0.099000
     11 C17        -75.1300   -43.0300    38.5250 c3         1 YJU       0.266700
     12 C20        -81.3580   -50.7160    48.7230 c6         1 YJU      -0.070400
     13 C21        -80.4970   -50.3950    49.9430 c6         1 YJU      -0.068700
     14 C22        -81.0660   -50.9620    51.2320 c3         1 YJU       0.167600
     15 C24        -79.7360   -48.2740    48.8040 c6         1 YJU      -0.089400
     16 C1         -79.2350   -42.4300    43.5560 c3         1 YJU      -0.100600
     17 C2         -78.7250   -43.5740    42.6820 c3         1 YJU       0.228300
     18 C3         -79.5020   -43.5650    41.3650 c3         1 YJU      -0.100600
     19 O1         -77.3590   -43.3120    42.3530 oh         1 YJU      -0.663000
     20 N2         -80.1100   -47.9650    46.3990 na         1 YJU       0.153500
     21 C9         -78.2460   -47.3300    43.4080 ca         1 YJU      -0.073000
     22 C11        -77.2690   -46.8100    40.6240 c          1 YJU       0.511600
     23 O2         -77.6950   -47.9530    40.6010 o          1 YJU      -0.596100
     24 C12        -76.4910   -46.2700    39.4540 ca         1 YJU       0.288500
     25 C14        -75.4450   -46.5900    37.3380 ca         1 YJU      -0.088000
     26 C16        -75.4590   -44.5000    38.4630 ca         1 YJU       0.239300
     27 N4         -76.1460   -44.9900    39.4760 nb         1 YJU      -0.626000
     28 F1         -75.9630   -42.3180    37.7550 f          1 YJU      -0.104000
     29 F2         -75.2150   -42.5460    39.7600 f          1 YJU      -0.104000
     30 F3         -73.8910   -42.7920    38.0790 f          1 YJU      -0.104000
     31 C18        -80.6200   -48.6080    47.6060 c6         1 YJU       0.083300
     32 C19        -80.7770   -50.1130    47.4470 c6         1 YJU      -0.089400
     33 O3         -81.1630   -52.3660    51.1360 oh         1 YJU      -0.662000
     34 C23        -80.3160   -48.8850    50.0740 c6         1 YJU      -0.070400
     35 H1         -77.0400   -44.9970    41.4800 hn         1 YJU       0.207000
     36 H2         -80.0980   -44.2420    44.9430 ha         1 YJU       0.126000
     37 H3         -79.0240   -49.5350    45.4620 h4         1 YJU       0.230000
     38 H4         -76.4680   -48.1490    38.4090 ha         1 YJU       0.155000
     39 H5         -74.5080   -44.8240    36.5500 ha         1 YJU       0.141000
     40 H6         -82.3720   -50.3300    48.8820 hc         1 YJU       0.049950
     41 H7         -81.4510   -51.7950    48.5930 hc         1 YJU       0.049950
     42 H8         -79.5020   -50.8340    49.7830 hc         1 YJU       0.061700
     43 H9         -80.4140   -50.6660    52.0660 h1         1 YJU       0.018700
     44 H10        -82.0470   -50.5030    51.4190 h1         1 YJU       0.018700
     45 H11        -78.7290   -48.6650    48.6280 hc         1 YJU       0.056700
     46 H12        -79.6500   -47.1910    48.9100 hc         1 YJU       0.056700
     47 H13        -78.7300   -42.4020    44.5230 hc         1 YJU       0.046533
     48 H14        -79.0460   -41.4860    43.0460 hc         1 YJU       0.046533
     49 H15        -80.3080   -42.4960    43.7340 hc         1 YJU       0.046533
     50 H16        -80.5560   -43.7630    41.5580 hc         1 YJU       0.046533
     51 H17        -79.4230   -42.5870    40.8870 hc         1 YJU       0.046533
     52 H18        -79.1450   -44.3140    40.6600 hc         1 YJU       0.046533
     53 H19        -76.8540   -43.2450    43.1730 ho         1 YJU       0.449000
     54 H20        -77.7160   -48.1800    43.0070 ha         1 YJU       0.139000
     55 H21        -75.1690   -47.2160    36.5010 ha         1 YJU       0.132000
     56 H22        -81.6090   -48.1710    47.7700 h1         1 YJU       0.084700
     57 H23        -81.4220   -50.3380    46.5940 hc         1 YJU       0.056700
     58 H24        -79.8040   -50.5740    47.2510 hc         1 YJU       0.056700
     59 H25        -81.5430   -52.6970    51.9540 ho         1 YJU       0.445000
     60 H26        -79.6630   -48.6530    50.9190 hc         1 YJU       0.049950
     61 H27        -81.2840   -48.4180    50.2890 hc         1 YJU       0.049950
@<TRIPOS>BOND
     1     1     5 2   
     2     1    20 1   
     3     2     8 1   
     4     2    22 1   
     5     2    35 1   
     6     3     4 ar  
     7     3     8 ar  
     8     3    17 1   
     9     4     5 ar  
    10     4    36 1   
    11     5     7 ar  
    12     6     7 2   
    13     6    20 1   
    14     6    37 1   
    15     7    21 ar  
    16     8    21 ar  
    17     9    24 ar  
    18     9    25 ar  
    19     9    38 1   
    20    10    25 ar  
    21    10    26 ar  
    22    10    39 1   
    23    11    26 1   
    24    11    28 1   
    25    11    29 1   
    26    11    30 1   
    27    12    13 1   
    28    12    32 1   
    29    12    40 1   
    30    12    41 1   
    31    13    14 1   
    32    13    34 1   
    33    13    42 1   
    34    14    33 1   
    35    14    43 1   
    36    14    44 1   
    37    15    31 1   
    38    15    34 1   
    39    15    45 1   
    40    15    46 1   
    41    16    17 1   
    42    16    47 1   
    43    16    48 1   
    44    16    49 1   
    45    17    18 1   
    46    17    19 1   
    47    18    50 1   
    48    18    51 1   
    49    18    52 1   
    50    19    53 1   
    51    20    31 1   
    52    21    54 1   
    53    22    23 2   
    54    22    24 1   
    55    24    27 ar  
    56    25    55 1   
    57    26    27 ar  
    58    31    32 1   
    59    31    56 1   
    60    32    57 1   
    61    32    58 1   
    62    33    59 1   
    63    34    60 1   
    64    34    61 1   
@<TRIPOS>SUBSTRUCTURE
     1 YJU         1 TEMP              0 ****  ****    0 ROOT
