@<TRIPOS>MOLECULE
YJV
   35    37     1     0     0
SMALL
abcg2


@<TRIPOS>ATOM
      1 CAK        -16.5040     0.7480   -18.1280 ca         1 YJV       0.374900
      2 CAH        -16.1090    -1.5490   -16.7430 ca         1 YJV      -0.188000
      3 CAF        -12.6990    -2.3320   -10.7170 cc         1 YJV      -0.022400
      4 CAE        -12.5240    -1.9570   -12.0060 cd         1 YJV      -0.273200
      5 CAI        -10.8660    -4.8370   -13.4470 cc         1 YJV      -0.096000
      6 CAQ        -15.2820     0.5340   -17.5170 ca         1 YJV      -0.008000
      7 CAS        -11.8810    -2.9020   -12.8380 cd         1 YJV      -0.037800
      8 N          -11.5520    -2.8310   -14.1520 na         1 YJV       0.026000
      9 CA         -11.9300    -1.7760   -15.0400 c3         1 YJV      -0.012400
     10 C          -13.3820    -1.9170   -15.4860 c          1 YJV       0.584100
     11 O          -14.0430    -2.8960   -15.2330 o          1 YJV      -0.527100
     12 CAG        -17.2910    -1.2380   -17.3910 ca         1 YJV       0.362900
     13 CAJ        -10.9520    -4.0120   -14.5280 cd         1 YJV      -0.188000
     14 CAP        -11.6550    -4.5130   -10.9900 c          1 YJV       0.596600
     15 CAR        -15.0480    -0.6440   -16.7950 ca         1 YJV       0.030000
     16 CAT        -11.4580    -4.1360   -12.3580 cc         1 YJV      -0.233600
     17 NAM        -17.5020    -0.1210   -18.0740 nb         1 YJV      -0.671000
     18 NAN        -13.8190    -0.8350   -16.1940 ns         1 YJV      -0.150000
     19 NAV        -12.2920    -3.5410   -10.2240 n          1 YJV      -0.290000
     20 OAC        -11.3150    -5.5820   -10.4900 o          1 YJV      -0.556000
     21 CLAD       -14.0570     1.7450   -17.6590 cl         1 YJV      -0.196000
     22 H1         -16.6680     1.6650   -18.6830 h4         1 YJV       0.034100
     23 H2         -16.0270    -2.4820   -16.2130 ha         1 YJV       0.161000
     24 H3         -13.1790    -1.6780   -10.0050 h4         1 YJV       0.196000
     25 H4         -12.8660    -0.9910   -12.3460 ha         1 YJV       0.195000
     26 H5         -10.4290    -5.8220   -13.4320 ha         1 YJV       0.151000
     27 H6         -11.2850    -1.7980   -15.9210 h1         1 YJV       0.081200
     28 H7         -11.7700    -0.8050   -14.5650 h1         1 YJV       0.081200
     29 H8         -13.0420    -3.0200    -8.3550 h1         1 YJV       0.050700
     30 H9         -13.1540    -4.7430    -8.7260 h1         1 YJV       0.050700
     31 H10        -11.5940    -4.0290    -8.2990 h1         1 YJV       0.050700
     32 H11        -18.1140    -1.9430   -17.3480 h4         1 YJV       0.028100
     33 H12        -10.6270    -4.1560   -15.5460 h4         1 YJV       0.147000
     34 H13        -13.1520    -0.0840   -16.3140 hn         1 YJV       0.165000
     35 CAA        -12.5310    -3.8560    -8.8230 c3         1 YJV       0.081300
@<TRIPOS>BOND
     1     1     6 ar  
     2     1    17 ar  
     3     1    22 1   
     4     2    12 ar  
     5     2    15 ar  
     6     2    23 1   
     7     3     4 2   
     8     3    19 1   
     9     3    24 1   
    10     4     7 1   
    11     4    25 1   
    12     5    13 2   
    13     5    16 1   
    14     5    26 1   
    15     6    15 ar  
    16     6    21 1   
    17     7     8 1   
    18     7    16 2   
    19     8     9 1   
    20     8    13 1   
    21     9    10 1   
    22     9    27 1   
    23     9    28 1   
    24    10    11 2   
    25    10    18 1   
    26    12    17 ar  
    27    12    32 1   
    28    13    33 1   
    29    14    16 1   
    30    14    19 1   
    31    14    20 2   
    32    15    18 1   
    33    18    34 1   
    34    19    35 1   
    35    29    35 1   
    36    30    35 1   
    37    31    35 1   
@<TRIPOS>SUBSTRUCTURE
     1 YJV         1 TEMP              0 ****  ****    0 ROOT
