@<TRIPOS>MOLECULE
YJV
   35    37     1     0     0
SMALL
No Charge or Current Charge


@<TRIPOS>ATOM
      1 CAK        -17.1670    -0.5710   -15.5540 ca         1 YJV       0.374900
      2 CAH        -15.4000    -1.2310   -17.5470 ca         1 YJV      -0.188000
      3 CAF        -12.2160    -1.3460   -11.4660 cc         1 YJV      -0.022400
      4 CAE        -11.8950    -1.4850   -12.8050 cd         1 YJV      -0.273200
      5 CAI        -11.8340    -5.0530   -13.3020 cc         1 YJV      -0.096000
      6 CAQ        -15.8550    -0.9430   -15.2000 ca         1 YJV      -0.008000
      7 CAS        -11.7960    -2.8200   -13.3070 cd         1 YJV      -0.037800
      8 N          -11.5070    -3.2680   -14.5980 na         1 YJV       0.026000
      9 CA         -11.2850    -2.4250   -15.7810 c3         1 YJV      -0.012400
     10 C          -12.5670    -2.2010   -16.5850 c          1 YJV       0.584100
     11 O          -12.6400    -2.4950   -17.7730 o          1 YJV      -0.527100
     12 CAG        -16.7260    -0.8480   -17.8090 ca         1 YJV       0.362900
     13 CAJ        -11.5270    -4.6740   -14.5880 cd         1 YJV      -0.188000
     14 CAP        -12.3450    -3.7910   -11.0850 c          1 YJV       0.596600
     15 CAR        -14.9400    -1.2890   -16.2150 ca         1 YJV       0.030000
     16 CAT        -12.0030    -3.8960   -12.5150 cc         1 YJV      -0.233600
     17 NAM        -17.6050    -0.5220   -16.8360 nb         1 YJV      -0.671000
     18 NAN        -13.6160    -1.6600   -15.8530 ns         1 YJV      -0.150000
     19 NAV        -12.4390    -2.4520   -10.6220 n          1 YJV      -0.290000
     20 OAC        -12.5340    -4.7640   -10.3640 o          1 YJV      -0.556000
     21 ClAD       -15.3800    -0.9800   -13.4970 cl         1 YJV      -0.196000
     22 H1         -17.8910    -0.3030   -14.7860 h4         1 YJV       0.034100
     23 H2         -14.7600    -1.4660   -18.3900 ha         1 YJV       0.161000
     24 H3         -12.3250    -0.3940   -10.9550 h4         1 YJV       0.196000
     25 H4         -11.7270    -0.6130   -13.4320 ha         1 YJV       0.195000
     26 H5         -11.9380    -6.0730   -12.9370 ha         1 YJV       0.151000
     27 H6         -10.5460    -2.9060   -16.4320 h1         1 YJV       0.081200
     28 H7         -10.8950    -1.4500   -15.4700 h1         1 YJV       0.081200
     29 H8         -12.8300    -1.1740    -8.9590 h1         1 YJV       0.050700
     30 H9         -13.7630    -2.6950    -8.9860 h1         1 YJV       0.050700
     31 H10        -12.0260    -2.7160    -8.5610 h1         1 YJV       0.050700
     32 H11        -17.0950    -0.7980   -18.8330 h4         1 YJV       0.028100
     33 H12        -11.3350    -5.2730   -15.4710 h4         1 YJV       0.147000
     34 H13        -13.4080    -1.5160   -14.8730 hn         1 YJV       0.165000
     35 CAA        -12.7850    -2.2440    -9.1980 c3         1 YJV       0.081300
@<TRIPOS>BOND
     1     1     6 ar  
     2     1    17 ar  
     3     1    22 1   
     4     2    12 ar  
     5     2    15 ar  
     6     2    23 1   
     7     3     4 2   
     8     3    19 1   
     9     3    24 1   
    10     4     7 1   
    11     4    25 1   
    12     5    13 2   
    13     5    16 1   
    14     5    26 1   
    15     6    15 ar  
    16     6    21 1   
    17     7     8 1   
    18     7    16 2   
    19     8     9 1   
    20     8    13 1   
    21     9    10 1   
    22     9    27 1   
    23     9    28 1   
    24    10    11 2   
    25    10    18 1   
    26    12    17 ar  
    27    12    32 1   
    28    13    33 1   
    29    14    16 1   
    30    14    19 1   
    31    14    20 2   
    32    15    18 1   
    33    18    34 1   
    34    19    35 1   
    35    29    35 1   
    36    30    35 1   
    37    31    35 1   
@<TRIPOS>SUBSTRUCTURE
     1 YJV         1 TEMP              0 ****  ****    0 ROOT
