@<TRIPOS>MOLECULE
YJW
   33    35     1     0     0
SMALL
No Charge or Current Charge


@<TRIPOS>ATOM
      1 N2          -0.2000     2.5200    -0.4960 nc         1 YJW      -0.440300
      2 C3          -0.0380     1.2250    -0.2890 cd         1 YJW       0.391500
      3 C4           1.3290     0.8500    -0.1590 cd         1 YJW      -0.170000
      4 C5           2.0200     2.0050    -0.4200 cc         1 YJW       0.201300
      5 C6          -1.2270     0.3530    -0.2400 ca         1 YJW      -0.296500
      6 C7           1.8900    -0.5040     0.0690 ca         1 YJW      -0.013000
      7 C8           3.4870     2.3370    -0.4260 c3         1 YJW      -0.140400
      8 C12          3.1360    -0.8870    -0.4760 ca         1 YJW      -0.097000
      9 C13          3.6600    -2.1710    -0.2440 ca         1 YJW      -0.112000
     10 C14          2.9510    -3.0910     0.5430 ca         1 YJW      -0.105000
     11 C15          1.7170    -2.7230     1.0990 ca         1 YJW      -0.112000
     12 C16          1.1930    -1.4400     0.8650 ca         1 YJW      -0.097000
     13 C21         -2.4010     0.7320     0.4430 ca         1 YJW       0.236100
     14 C22         -3.5220    -0.1070     0.4590 ca         1 YJW      -0.272000
     15 C23         -3.4960    -1.3210    -0.2350 ca         1 YJW       0.199100
     16 C24         -2.3550    -1.6920    -0.9540 ca         1 YJW      -0.198000
     17 C25         -1.2280    -0.8560    -0.9690 ca         1 YJW      -0.003000
     18 O29         -4.5840    -2.1370    -0.2260 oh         1 YJW      -0.527100
     19 O11          1.1320     3.0390    -0.5830 os         1 YJW      -0.054700
     20 O30         -2.4680     1.9160     1.1060 oh         1 YJW      -0.541100
     21 H81C         3.9280     2.1370    -1.4100 hc         1 YJW       0.066033
     22 H82C         3.6480     3.3960    -0.1960 hc         1 YJW       0.066033
     23 H83C         4.0270     1.7490     0.3250 hc         1 YJW       0.066033
     24 H25         -0.3530    -1.1530    -1.5450 ha         1 YJW       0.126000
     25 H12          3.6940    -0.2110    -1.1140 ha         1 YJW       0.118500
     26 H16          0.2510    -1.1690     1.3350 ha         1 YJW       0.118500
     27 H13          4.6150    -2.4540    -0.6800 ha         1 YJW       0.115500
     28 H14          3.3570    -4.0840     0.7230 ha         1 YJW       0.115000
     29 H15          1.1670    -3.4290     1.7180 ha         1 YJW       0.115500
     30 H22         -4.4100     0.1980     1.0060 ha         1 YJW       0.131000
     31 H30         -1.7110     2.4560     0.7830 ho         1 YJW       0.508000
     32 H24         -2.3440    -2.6280    -1.5070 ha         1 YJW       0.134000
     33 H29         -5.2780    -1.7120     0.3220 ho         1 YJW       0.470000
@<TRIPOS>BOND
     1     1     2 2   
     2     1    19 1   
     3     2     3 1   
     4     2     5 1   
     5     3     4 2   
     6     3     6 1   
     7     4     7 1   
     8     4    19 1   
     9     5    13 ar  
    10     5    17 ar  
    11     6     8 ar  
    12     6    12 ar  
    13     7    21 1   
    14     7    22 1   
    15     7    23 1   
    16     8     9 ar  
    17     8    25 1   
    18     9    10 ar  
    19     9    27 1   
    20    10    11 ar  
    21    10    28 1   
    22    11    12 ar  
    23    11    29 1   
    24    12    26 1   
    25    13    14 ar  
    26    13    20 1   
    27    14    15 ar  
    28    14    30 1   
    29    15    16 ar  
    30    15    18 1   
    31    16    17 ar  
    32    16    32 1   
    33    17    24 1   
    34    18    33 1   
    35    20    31 1   
@<TRIPOS>SUBSTRUCTURE
     1 YJW         1 TEMP              0 ****  ****    0 ROOT
