@<TRIPOS>MOLECULE
YJW
   33    35     1     0     0
SMALL
bcc


@<TRIPOS>ATOM
      1 N2          -0.1490     2.4520    -0.2770 nc         1 YJW      -0.440300
      2 C3          -0.0480     1.1490    -0.2220 cd         1 YJW       0.456800
      3 C4           1.3270     0.7710    -0.1060 cd         1 YJW      -0.300600
      4 C5           1.9840     1.9620    -0.1080 cc         1 YJW       0.311000
      5 C6          -1.2580     0.3320    -0.2630 ca         1 YJW      -0.296500
      6 C7           1.9340    -0.5580     0.0440 ca         1 YJW      -0.013000
      7 C8           3.4180     2.3120    -0.0140 c3         1 YJW      -0.140400
      8 C12          2.8840    -1.0090    -0.8700 ca         1 YJW      -0.115000
      9 C13          3.4740    -2.2570    -0.7170 ca         1 YJW      -0.130000
     10 C14          3.1160    -3.0690     0.3500 ca         1 YJW      -0.123000
     11 C15          2.1700    -2.6260     1.2670 ca         1 YJW      -0.130000
     12 C16          1.5850    -1.3780     1.1170 ca         1 YJW      -0.115000
     13 C21         -2.5130     0.8780     0.0720 ca         1 YJW       0.236100
     14 C22         -3.6470     0.0700     0.0740 ca         1 YJW      -0.290000
     15 C23         -3.5620    -1.2680    -0.2840 ca         1 YJW       0.199100
     16 C24         -2.3330    -1.8150    -0.6580 ca         1 YJW      -0.216000
     17 C25         -1.2120    -1.0140    -0.6410 ca         1 YJW      -0.021000
     18 O29         -4.6340    -2.0760    -0.3000 oh         1 YJW      -0.488100
     19 O11          1.1050     2.9610    -0.2010 os         1 YJW      -0.099100
     20 O30         -2.6910     2.1610     0.4080 oh         1 YJW      -0.502100
     21 H81C         3.8050     2.6420    -0.9800 hc         1 YJW       0.066033
     22 H82C         3.5830     3.1140     0.7050 hc         1 YJW       0.066033
     23 H83C         3.9940     1.4440     0.2980 hc         1 YJW       0.066033
     24 H25         -0.2690    -1.4460    -0.9430 ha         1 YJW       0.144000
     25 H12          3.1580    -0.3850    -1.7120 ha         1 YJW       0.136500
     26 H16          0.8540    -1.0360     1.8390 ha         1 YJW       0.136500
     27 H13          4.2090    -2.5950    -1.4350 ha         1 YJW       0.133500
     28 H14          3.5710    -4.0440     0.4680 ha         1 YJW       0.133000
     29 H15          1.8890    -3.2530     2.1030 ha         1 YJW       0.133500
     30 H22         -4.6010     0.5090     0.3470 ha         1 YJW       0.149000
     31 H30         -1.8640     2.6630     0.2680 ho         1 YJW       0.469000
     32 H24         -2.2640    -2.8510    -0.9610 ha         1 YJW       0.152000
     33 H29         -5.4280    -1.5950    -0.0380 ho         1 YJW       0.431000
@<TRIPOS>BOND
     1     1     2 2   
     2     1    19 1   
     3     2     3 1   
     4     2     5 1   
     5     3     4 2   
     6     3     6 1   
     7     4     7 1   
     8     4    19 1   
     9     5    13 ar  
    10     5    17 ar  
    11     6     8 ar  
    12     6    12 ar  
    13     7    21 1   
    14     7    22 1   
    15     7    23 1   
    16     8     9 ar  
    17     8    25 1   
    18     9    10 ar  
    19     9    27 1   
    20    10    11 ar  
    21    10    28 1   
    22    11    12 ar  
    23    11    29 1   
    24    12    26 1   
    25    13    14 ar  
    26    13    20 1   
    27    14    15 ar  
    28    14    30 1   
    29    15    16 ar  
    30    15    18 1   
    31    16    17 ar  
    32    16    32 1   
    33    17    24 1   
    34    18    33 1   
    35    20    31 1   
@<TRIPOS>SUBSTRUCTURE
     1 YJW         1 TEMP              0 ****  ****    0 ROOT
