@<TRIPOS>MOLECULE
YJX
   37    41     1     0     0
SMALL
No Charge or Current Charge


@<TRIPOS>ATOM
      1 C15         -0.9750    -3.3340    -0.5250 ca         1 YJX      -0.096000
      2 C19         -2.3140    -3.6970    -0.2460 ca         1 YJX      -0.109000
      3 C8          -0.5740    -1.9810    -0.4940 ca         1 YJX      -0.060000
      4 C14         -3.2730    -2.7080     0.0590 ca         1 YJX      -0.045000
      5 C20          3.8710    -0.7460     1.4380 ca         1 YJX      -0.104000
      6 C22          5.2030    -0.6750     0.9760 ca         1 YJX       0.305900
      7 C21          4.6270     0.7500    -0.7790 ca         1 YJX       0.350900
      8 C3          -1.5330    -1.0080    -0.1670 ca         1 YJX      -0.050800
      9 C7          -2.8490    -1.3720     0.0870 ca         1 YJX      -0.166600
     10 C17          2.9100    -0.0170     0.7310 ca         1 YJX       0.102400
     11 C18          3.2900     0.7090    -0.3520 ca         1 YJX      -0.148200
     12 C5           1.1110     0.9250    -0.0020 cc         1 YJX       0.513100
     13 C1          -1.4170     0.4560    -0.0770 cd         1 YJX       0.167400
     14 C9          -3.6260    -0.1360     0.3390 c          1 YJX       0.579600
     15 C2          -0.2910     1.2270    -0.2530 ce         1 YJX      -0.233800
     16 C6          -0.6150     2.7160    -0.4870 c6         1 YJX      -0.030200
     17 C13         -1.7470     3.2020     0.4560 c6         1 YJX      -0.092400
     18 C10         -3.0260     2.3370     0.3280 c6         1 YJX       0.109000
     19 N23          5.5850     0.0560    -0.1110 nb         1 YJX      -0.658000
     20 N11          1.5430     0.0820     0.9600 nd         1 YJX      -0.591100
     21 N12          2.1570     1.2950    -0.8420 na         1 YJX      -0.301600
     22 N4          -2.6960     0.9020     0.2390 n          1 YJX      -0.337000
     23 O16         -4.8230    -0.0360     0.5730 o          1 YJX      -0.514000
     24 H15         -0.2480    -4.1050    -0.7710 ha         1 YJX       0.119000
     25 H19         -2.6100    -4.7430    -0.2780 ha         1 YJX       0.121000
     26 H8           0.4520    -1.7090    -0.7260 ha         1 YJX       0.157000
     27 H14         -4.3090    -2.9740     0.2600 ha         1 YJX       0.135000
     28 H22          5.9920    -1.2220     1.4900 h4         1 YJX       0.020100
     29 H21          4.9370     1.3300    -1.6480 h4         1 YJX       0.021100
     30 H12          2.0680     1.8670    -1.6720 hn         1 YJX       0.362000
     31 H61C         0.2750     3.3400    -0.3230 hc         1 YJX       0.048200
     32 H62C        -0.9090     2.8680    -1.5350 hc         1 YJX       0.048200
     33 H131        -1.3880     3.1550     1.4940 hc         1 YJX       0.060200
     34 H132        -1.9860     4.2560     0.2590 hc         1 YJX       0.060200
     35 H101        -3.6910     2.5170     1.1850 h1         1 YJX       0.060700
     36 H102        -3.5690     2.6240    -0.5840 h1         1 YJX       0.060700
     37 H20          3.6080    -1.3420     2.3060 ha         1 YJX       0.136000
@<TRIPOS>BOND
     1     1     2 ar  
     2     1     3 ar  
     3     1    24 1   
     4     2     4 ar  
     5     2    25 1   
     6     3     8 ar  
     7     3    26 1   
     8     4     9 ar  
     9     4    27 1   
    10     5     6 ar  
    11     5    10 ar  
    12     5    37 1   
    13     6    19 ar  
    14     6    28 1   
    15     7    11 ar  
    16     7    19 ar  
    17     7    29 1   
    18     8     9 ar  
    19     8    13 1   
    20     9    14 1   
    21    10    11 ar  
    22    10    20 1   
    23    11    21 1   
    24    12    15 1   
    25    12    20 2   
    26    12    21 1   
    27    13    15 2   
    28    13    22 1   
    29    14    22 1   
    30    14    23 2   
    31    15    16 1   
    32    16    17 1   
    33    16    31 1   
    34    16    32 1   
    35    17    18 1   
    36    17    33 1   
    37    17    34 1   
    38    18    22 1   
    39    18    35 1   
    40    18    36 1   
    41    21    30 1   
@<TRIPOS>SUBSTRUCTURE
     1 YJX         1 TEMP              0 ****  ****    0 ROOT
