@<TRIPOS>MOLECULE
YJX
   37    41     1     0     0
SMALL
abcg2


@<TRIPOS>ATOM
      1 C15         -1.1290    -3.4460     0.1450 ca         1 YJX      -0.096000
      2 C19         -2.4980    -3.6920     0.0790 ca         1 YJX      -0.109000
      3 C8          -0.6150    -2.1540     0.1600 ca         1 YJX      -0.060000
      4 C14         -3.3910    -2.6310     0.0200 ca         1 YJX      -0.045000
      5 C20          4.0240    -1.0100     0.8660 ca         1 YJX      -0.104000
      6 C22          5.2860    -0.6680     0.4200 ca         1 YJX       0.305900
      7 C21          4.5770     1.1740    -0.7630 ca         1 YJX       0.350900
      8 C3          -1.5020    -1.0870     0.0950 ca         1 YJX      -0.050800
      9 C7          -2.8700    -1.3520     0.0290 ca         1 YJX      -0.166600
     10 C17          2.9770    -0.1880     0.4530 ca         1 YJX       0.102400
     11 C18          3.2740     0.9100    -0.3680 ca         1 YJX      -0.148200
     12 C5           1.1190     0.7800     0.0520 cc         1 YJX       0.513100
     13 C1          -1.3390     0.3800     0.0540 cd         1 YJX       0.167400
     14 C9          -3.5960    -0.0770    -0.0510 c          1 YJX       0.579600
     15 C2          -0.2710     1.2080     0.0150 ce         1 YJX      -0.233800
     16 C6          -0.4840     2.7020    -0.0910 c6         1 YJX      -0.030200
     17 C13         -1.8350     3.1220     0.4620 c6         1 YJX      -0.092400
     18 C10         -2.9400     2.3040    -0.1690 c6         1 YJX       0.109000
     19 N23          5.5610     0.3840    -0.3660 nb         1 YJX      -0.658000
     20 N11          1.6360    -0.2370     0.7030 nd         1 YJX      -0.591100
     21 N12          2.0700     1.5090    -0.5970 na         1 YJX      -0.301600
     22 N4          -2.6380     0.8950    -0.0160 n          1 YJX      -0.337000
     23 O16         -4.7940     0.1110    -0.1400 o          1 YJX      -0.514000
     24 H15         -0.4420    -4.2810     0.1930 ha         1 YJX       0.119000
     25 H19         -2.8630    -4.7110     0.0730 ha         1 YJX       0.121000
     26 H8           0.4470    -1.9940     0.2420 ha         1 YJX       0.157000
     27 H14         -4.4590    -2.7950    -0.0300 ha         1 YJX       0.135000
     28 H22          6.1360    -1.2760     0.7080 h4         1 YJX       0.020100
     29 H21          4.8240     2.0190    -1.3960 h4         1 YJX       0.021100
     30 H12          1.9110     2.3210    -1.1750 hn         1 YJX       0.362000
     31 H61C         0.3050     3.2230     0.4540 hc         1 YJX       0.048200
     32 H62C        -0.3970     3.0180    -1.1370 hc         1 YJX       0.048200
     33 H131        -1.8500     2.9890     1.5460 hc         1 YJX       0.060200
     34 H132        -2.0090     4.1780     0.2610 hc         1 YJX       0.060200
     35 H101        -3.8980     2.5080     0.3080 h1         1 YJX       0.060700
     36 H102        -3.0390     2.5450    -1.2310 h1         1 YJX       0.060700
     37 H20          3.8680    -1.8720     1.5000 ha         1 YJX       0.136000
@<TRIPOS>BOND
     1     1     2 ar  
     2     1     3 ar  
     3     1    24 1   
     4     2     4 ar  
     5     2    25 1   
     6     3     8 ar  
     7     3    26 1   
     8     4     9 ar  
     9     4    27 1   
    10     5     6 ar  
    11     5    10 ar  
    12     5    37 1   
    13     6    19 ar  
    14     6    28 1   
    15     7    11 ar  
    16     7    19 ar  
    17     7    29 1   
    18     8     9 ar  
    19     8    13 1   
    20     9    14 1   
    21    10    11 ar  
    22    10    20 1   
    23    11    21 1   
    24    12    15 1   
    25    12    20 2   
    26    12    21 1   
    27    13    15 2   
    28    13    22 1   
    29    14    22 1   
    30    14    23 2   
    31    15    16 1   
    32    16    17 1   
    33    16    31 1   
    34    16    32 1   
    35    17    18 1   
    36    17    33 1   
    37    17    34 1   
    38    18    22 1   
    39    18    35 1   
    40    18    36 1   
    41    21    30 1   
@<TRIPOS>SUBSTRUCTURE
     1 YJX         1 TEMP              0 ****  ****    0 ROOT
