@<TRIPOS>MOLECULE
YJY
   77    82     1     0     0
SMALL
abcg2


@<TRIPOS>ATOM
      1 C10          9.2770    -1.8660    24.4390 ca         1 YJY      -0.076200
      2 C13         11.8050    -2.7520    23.7440 ca         1 YJY      -0.020000
      3 C15         13.7450    -4.3950    23.6490 cc         1 YJY       0.201300
      4 C20         13.2710    -5.6290    24.3130 c3         1 YJY      -0.139400
      5 C21         10.7140    -3.5630    23.4700 ca         1 YJY      -0.039000
      6 C24          6.4060     0.2500    24.3950 c6         1 YJY      -0.086400
      7 C26          6.1330     1.5550    26.5760 c6         1 YJY       0.168300
      8 C28          6.6610    -0.9000    26.6340 c6         1 YJY      -0.086400
      9 C02          4.5770    -4.6530    22.6130 c          1 YJY       0.578000
     10 C03          4.0700    -5.4830    23.7640 c6         1 YJY      -0.156400
     11 C04          4.2000    -4.8100    25.1190 c6         1 YJY      -0.074400
     12 C05          5.6140    -4.2870    25.2660 c6         1 YJY      -0.090400
     13 C06          5.8880    -3.2110    24.2210 c6         1 YJY       0.129400
     14 C07          7.3570    -2.8880    24.1820 cc         1 YJY       0.387800
     15 C09          9.4450    -3.1190    23.8360 ca         1 YJY       0.065400
     16 C11         10.3600    -1.0370    24.7160 ca         1 YJY      -0.116000
     17 C12         11.6130    -1.5020    24.3670 ca         1 YJY      -0.079000
     18 C14         13.1620    -3.1910    23.4070 cd         1 YJY      -0.178000
     19 C18         14.1840    -2.4560    22.7320 cd         1 YJY       0.291300
     20 C19         14.1240    -1.0640    22.2100 c3         1 YJY      -0.133400
     21 C23          7.3300    -0.5660    25.2930 c6         1 YJY       0.085300
     22 C25          6.1500     1.6180    25.0430 c6         1 YJY      -0.091400
     23 C27          5.6550     0.1830    27.0400 c6         1 YJY      -0.091400
     24 C32          5.8570    -2.8220    21.8040 ca         1 YJY      -0.057000
     25 C33          6.8660    -3.2380    20.9520 ca         1 YJY      -0.020000
     26 C34          7.2930    -2.4010    19.9330 ca         1 YJY      -0.204800
     27 C35          8.3640    -2.8530    18.9890 c3         1 YJY       0.361300
     28 C39          6.7150    -1.1550    19.7610 ca         1 YJY      -0.013000
     29 C40          5.6940    -0.7510    20.6110 ca         1 YJY      -0.204800
     30 C41          5.1060     0.6100    20.4030 c3         1 YJY       0.361300
     31 C45          5.2550    -1.5860    21.6270 ca         1 YJY      -0.020000
     32 F36          9.1560    -1.8390    18.6220 f          1 YJY      -0.109833
     33 F37          9.1460    -3.7970    19.5180 f          1 YJY      -0.109833
     34 F38          7.8400    -3.3700    17.8700 f          1 YJY      -0.109833
     35 F42          4.5450     0.7440    19.1950 f          1 YJY      -0.109833
     36 F43          4.1680     0.9030    21.3060 f          1 YJY      -0.109833
     37 F44          6.0560     1.5500    20.4930 f          1 YJY      -0.109833
     38 N08          8.2290    -3.7300    23.7000 nd         1 YJY      -0.565100
     39 N17         15.2580    -3.1760    22.5920 nc         1 YJY      -0.365300
     40 N22          7.9230    -1.7320    24.6450 na         1 YJY      -0.166600
     41 N31          5.4590    -3.6470    22.8880 n          1 YJY      -0.246400
     42 O01          4.2370    -4.8820    21.4650 o          1 YJY      -0.538000
     43 O16         14.9900    -4.3840    23.1670 os         1 YJY      -0.072700
     44 O29          5.3190     2.6110    27.0350 os         1 YJY      -0.450000
     45 H1          14.0130    -6.0100    25.0160 hc         1 YJY       0.064700
     46 H2          12.3510    -5.4290    24.8570 hc         1 YJY       0.064700
     47 H3          13.0650    -6.4180    23.5870 hc         1 YJY       0.064700
     48 H4          10.8360    -4.5200    22.9770 ha         1 YJY       0.133000
     49 H5           5.4590    -0.2710    24.2460 hc         1 YJY       0.053450
     50 H6           6.8530     0.3790    23.4080 hc         1 YJY       0.053450
     51 H7           7.1580     1.7040    26.9540 h1         1 YJY       0.030700
     52 H8           6.1440    -1.8580    26.5920 hc         1 YJY       0.053450
     53 H9           7.4370    -1.0090    27.3950 hc         1 YJY       0.053450
     54 H10          3.0380    -5.7520    23.5380 hc         1 YJY       0.079700
     55 H11          4.6420    -6.4170    23.7590 hc         1 YJY       0.079700
     56 H12          3.4810    -3.9920    25.2130 hc         1 YJY       0.053200
     57 H13          3.9730    -5.5230    25.9120 hc         1 YJY       0.053200
     58 H14          6.3310    -5.1030    25.1450 hc         1 YJY       0.067200
     59 H15          5.7800    -3.8580    26.2540 hc         1 YJY       0.067200
     60 H16          5.3190    -2.3170    24.4920 h1         1 YJY       0.054700
     61 H17         10.2520    -0.0700    25.1900 ha         1 YJY       0.119000
     62 H18         12.4740    -0.8870    24.5950 ha         1 YJY       0.118000
     63 H19         14.9500    -0.8700    21.5290 hc         1 YJY       0.057033
     64 H20         13.1880    -0.8890    21.6820 hc         1 YJY       0.057033
     65 H21         14.1800    -0.3380    23.0220 hc         1 YJY       0.057033
     66 H22          8.1840     0.0750    25.5140 h1         1 YJY       0.068700
     67 H23          6.9070     2.3340    24.7170 hc         1 YJY       0.058700
     68 H24          5.1850     1.9970    24.6990 hc         1 YJY       0.058700
     69 H25          5.5170     0.1540    28.1220 hc         1 YJY       0.058700
     70 H26          4.6780    -0.0220    26.5930 hc         1 YJY       0.058700
     71 H27          4.9210     3.8440    28.5890 h1         1 YJY       0.030367
     72 H28          5.2780     2.1860    29.0850 h1         1 YJY       0.030367
     73 H29          6.5900     3.2500    28.5520 h1         1 YJY       0.030367
     74 H30          7.3210    -4.2040    21.1150 ha         1 YJY       0.147500
     75 H31          7.0540    -0.4980    18.9700 ha         1 YJY       0.143000
     76 H32          4.4570    -1.2910    22.2960 ha         1 YJY       0.147500
     77 C30          5.5440     2.9750    28.3730 c3         1 YJY       0.145900
@<TRIPOS>BOND
     1     1    15 ar  
     2     1    16 ar  
     3     1    40 1   
     4     2     5 ar  
     5     2    17 ar  
     6     2    18 1   
     7     3     4 1   
     8     3    18 2   
     9     3    43 1   
    10     4    45 1   
    11     4    46 1   
    12     4    47 1   
    13     5    15 ar  
    14     5    48 1   
    15     6    21 1   
    16     6    22 1   
    17     6    49 1   
    18     6    50 1   
    19     7    22 1   
    20     7    23 1   
    21     7    44 1   
    22     7    51 1   
    23     8    21 1   
    24     8    23 1   
    25     8    52 1   
    26     8    53 1   
    27     9    10 1   
    28     9    41 1   
    29     9    42 2   
    30    10    11 1   
    31    10    54 1   
    32    10    55 1   
    33    11    12 1   
    34    11    56 1   
    35    11    57 1   
    36    12    13 1   
    37    12    58 1   
    38    12    59 1   
    39    13    14 1   
    40    13    41 1   
    41    13    60 1   
    42    14    38 2   
    43    14    40 1   
    44    15    38 1   
    45    16    17 ar  
    46    16    61 1   
    47    17    62 1   
    48    18    19 1   
    49    19    20 1   
    50    19    39 2   
    51    20    63 1   
    52    20    64 1   
    53    20    65 1   
    54    21    40 1   
    55    21    66 1   
    56    22    67 1   
    57    22    68 1   
    58    23    69 1   
    59    23    70 1   
    60    24    25 ar  
    61    24    31 ar  
    62    24    41 1   
    63    25    26 ar  
    64    25    74 1   
    65    26    27 1   
    66    26    28 ar  
    67    27    32 1   
    68    27    33 1   
    69    27    34 1   
    70    28    29 ar  
    71    28    75 1   
    72    29    30 1   
    73    29    31 ar  
    74    30    35 1   
    75    30    36 1   
    76    30    37 1   
    77    31    76 1   
    78    39    43 1   
    79    44    77 1   
    80    71    77 1   
    81    72    77 1   
    82    73    77 1   
@<TRIPOS>SUBSTRUCTURE
     1 YJY         1 TEMP              0 ****  ****    0 ROOT
