@<TRIPOS>MOLECULE
YJY
   77    82     1     0     0
SMALL
No Charge or Current Charge


@<TRIPOS>ATOM
      1 C10          9.4870    -2.0820    24.4160 ca         1 YJY      -0.076200
      2 C13         12.0500    -3.0440    23.8110 ca         1 YJY      -0.020000
      3 C15         13.8640    -4.8410    23.5840 cc         1 YJY       0.201300
      4 C20         13.2710    -6.0930    24.1670 c3         1 YJY      -0.139400
      5 C21         10.9220    -3.9020    23.7680 ca         1 YJY      -0.039000
      6 C24          6.6260     0.0550    24.1130 c6         1 YJY      -0.086400
      7 C26          6.1290     1.6470    26.1190 c6         1 YJY       0.168300
      8 C28          6.9070    -0.7750    26.5360 c6         1 YJY      -0.086400
      9 C02          4.4650    -4.5340    22.6710 c          1 YJY       0.578000
     10 C03          4.0340    -5.5450    23.7430 c6         1 YJY      -0.156400
     11 C04          4.2360    -5.0450    25.1840 c6         1 YJY      -0.074400
     12 C05          5.6890    -4.5740    25.3350 c6         1 YJY      -0.090400
     13 C06          6.0100    -3.3970    24.3720 c6         1 YJY       0.129400
     14 C07          7.5160    -3.1410    24.3610 cc         1 YJY       0.387800
     15 C09          9.6550    -3.3880    24.0700 ca         1 YJY       0.065400
     16 C11         10.5670    -1.1890    24.4780 ca         1 YJY      -0.116000
     17 C12         11.8510    -1.6840    24.1720 ca         1 YJY      -0.079000
     18 C14         13.4080    -3.5500    23.4890 cd         1 YJY      -0.178000
     19 C18         14.4740    -2.8540    22.8530 cd         1 YJY       0.291300
     20 C19         14.4980    -1.4270    22.3690 c3         1 YJY      -0.133400
     21 C23          7.5730    -0.6240    25.1330 c6         1 YJY       0.085300
     22 C25          6.2390     1.4890    24.5710 c6         1 YJY      -0.091400
     23 C27          5.8000     0.2880    26.8020 c6         1 YJY      -0.091400
     24 C32          5.7500    -2.4960    22.0480 ca         1 YJY      -0.057000
     25 C33          7.0040    -2.4640    21.4110 ca         1 YJY      -0.020000
     26 C34          7.3190    -1.4490    20.4880 ca         1 YJY      -0.204800
     27 C35          8.7200    -1.4020    19.8710 c3         1 YJY       0.361300
     28 C39          6.3310    -0.5010    20.1450 ca         1 YJY      -0.013000
     29 C40          5.0380    -0.5760    20.7060 ca         1 YJY      -0.204800
     30 C41          3.9670     0.4520    20.3310 c3         1 YJY       0.361300
     31 C45          4.7540    -1.5870    21.6460 ca         1 YJY      -0.020000
     32 F36          9.0090    -0.2050    19.3120 f          1 YJY      -0.109833
     33 F37          9.6830    -1.6400    20.7920 f          1 YJY      -0.109833
     34 F38          8.8610    -2.3340    18.9030 f          1 YJY      -0.109833
     35 F42          2.7180    -0.0670    20.3780 f          1 YJY      -0.109833
     36 F43          3.9870     1.5070    21.1760 f          1 YJY      -0.109833
     37 F44          4.1330     0.9420    19.0810 f          1 YJY      -0.109833
     38 N08          8.4460    -4.0700    24.0380 nd         1 YJY      -0.565100
     39 N17         15.5310    -3.6120    22.6290 nc         1 YJY      -0.365300
     40 N22          8.1460    -1.9060    24.6330 na         1 YJY      -0.166600
     41 N31          5.4260    -3.5370    22.9900 n          1 YJY      -0.246400
     42 O01          3.9400    -4.5790    21.5640 o          1 YJY      -0.538000
     43 O16         15.1520    -4.9050    23.1150 os         1 YJY      -0.072700
     44 O29          5.1440     2.6590    26.4210 os         1 YJY      -0.450000
     45 H1          14.0590    -6.7740    24.5100 hc         1 YJY       0.064700
     46 H2          12.6350    -5.8640    25.0300 hc         1 YJY       0.064700
     47 H3          12.6710    -6.6260    23.4210 hc         1 YJY       0.064700
     48 H4          11.0060    -4.9380    23.4620 ha         1 YJY       0.133000
     49 H5           5.7080    -0.5320    24.0000 hc         1 YJY       0.053450
     50 H6           7.0970     0.0980    23.1220 hc         1 YJY       0.053450
     51 H7           7.1020     1.9920    26.4980 h1         1 YJY       0.030700
     52 H8           6.4770    -1.7740    26.6750 hc         1 YJY       0.053450
     53 H9           7.6910    -0.6870    27.3010 hc         1 YJY       0.053450
     54 H10          3.0080    -5.8810    23.5450 hc         1 YJY       0.079700
     55 H11          4.6790    -6.4220    23.6010 hc         1 YJY       0.079700
     56 H12          3.5410    -4.2210    25.4040 hc         1 YJY       0.053200
     57 H13          4.0180    -5.8500    25.9000 hc         1 YJY       0.053200
     58 H14          6.3600    -5.4220    25.1390 hc         1 YJY       0.067200
     59 H15          5.8800    -4.2670    26.3720 hc         1 YJY       0.067200
     60 H16          5.5060    -2.5270    24.8060 h1         1 YJY       0.054700
     61 H17         10.4410    -0.1450    24.7510 ha         1 YJY       0.119000
     62 H18         12.6930    -1.0060    24.2540 ha         1 YJY       0.118000
     63 H19         15.2370    -1.2880    21.5710 hc         1 YJY       0.057033
     64 H20         13.5250    -1.1300    21.9630 hc         1 YJY       0.057033
     65 H21         14.7610    -0.7410    23.1830 hc         1 YJY       0.057033
     66 H22          8.4010     0.0820    25.2710 h1         1 YJY       0.068700
     67 H23          6.9860     2.2040    24.2010 hc         1 YJY       0.058700
     68 H24          5.2900     1.7690    24.0930 hc         1 YJY       0.058700
     69 H25          5.6830     0.4080    27.8860 hc         1 YJY       0.058700
     70 H26          4.8360    -0.0800    26.4250 hc         1 YJY       0.058700
     71 H27          4.3500     3.9580    27.8530 h1         1 YJY       0.030367
     72 H28          4.6660     2.3170    28.4410 h1         1 YJY       0.030367
     73 H29          6.0220     3.4410    28.1600 h1         1 YJY       0.030367
     74 H30          7.7470    -3.2230    21.6410 ha         1 YJY       0.147500
     75 H31          6.5630     0.2890    19.4320 ha         1 YJY       0.143000
     76 H32          3.7660    -1.6480    22.1010 ha         1 YJY       0.147500
     77 C30          5.0440     3.1110    27.7850 c3         1 YJY       0.145900
@<TRIPOS>BOND
     1     1    15 ar  
     2     1    16 ar  
     3     1    40 1   
     4     2     5 ar  
     5     2    17 ar  
     6     2    18 1   
     7     3     4 1   
     8     3    18 2   
     9     3    43 1   
    10     4    45 1   
    11     4    46 1   
    12     4    47 1   
    13     5    15 ar  
    14     5    48 1   
    15     6    21 1   
    16     6    22 1   
    17     6    49 1   
    18     6    50 1   
    19     7    22 1   
    20     7    23 1   
    21     7    44 1   
    22     7    51 1   
    23     8    21 1   
    24     8    23 1   
    25     8    52 1   
    26     8    53 1   
    27     9    10 1   
    28     9    41 1   
    29     9    42 2   
    30    10    11 1   
    31    10    54 1   
    32    10    55 1   
    33    11    12 1   
    34    11    56 1   
    35    11    57 1   
    36    12    13 1   
    37    12    58 1   
    38    12    59 1   
    39    13    14 1   
    40    13    41 1   
    41    13    60 1   
    42    14    38 2   
    43    14    40 1   
    44    15    38 1   
    45    16    17 ar  
    46    16    61 1   
    47    17    62 1   
    48    18    19 1   
    49    19    20 1   
    50    19    39 2   
    51    20    63 1   
    52    20    64 1   
    53    20    65 1   
    54    21    40 1   
    55    21    66 1   
    56    22    67 1   
    57    22    68 1   
    58    23    69 1   
    59    23    70 1   
    60    24    25 ar  
    61    24    31 ar  
    62    24    41 1   
    63    25    26 ar  
    64    25    74 1   
    65    26    27 1   
    66    26    28 ar  
    67    27    32 1   
    68    27    33 1   
    69    27    34 1   
    70    28    29 ar  
    71    28    75 1   
    72    29    30 1   
    73    29    31 ar  
    74    30    35 1   
    75    30    36 1   
    76    30    37 1   
    77    31    76 1   
    78    39    43 1   
    79    44    77 1   
    80    71    77 1   
    81    72    77 1   
    82    73    77 1   
@<TRIPOS>SUBSTRUCTURE
     1 YJY         1 TEMP              0 ****  ****    0 ROOT
