@<TRIPOS>MOLECULE
YJZ
   58    62     1     0     0
SMALL
abcg2


@<TRIPOS>ATOM
      1 C01        -20.9650   -15.1200     4.8730 c3         1 YJZ       0.167900
      2 C03        -21.1520   -13.6150     6.6880 ca         1 YJZ       0.557300
      3 C04        -21.6740   -13.3380     7.9560 ca         1 YJZ      -0.198000
      4 C05        -21.3910   -12.1170     8.5470 ca         1 YJZ       0.116200
      5 C06        -21.8730   -11.8390     9.9010 cc         1 YJZ      -0.158400
      6 C07        -22.5270   -10.7290    10.3950 cd         1 YJZ      -0.046300
      7 C08        -23.0410    -9.4620     9.7450 c          1 YJZ       0.722200
      8 C12        -22.2960   -12.1290    12.1310 ca         1 YJZ      -0.057200
      9 C13        -22.3140   -12.7300    13.3980 ca         1 YJZ      -0.135300
     10 C14        -23.0090   -12.0510    14.5590 c3         1 YJZ       0.189000
     11 C15        -22.5400   -12.5130    15.9310 c3         1 YJZ      -0.094100
     12 C17        -25.1120   -13.4880    14.4000 c5         1 YJZ       0.086000
     13 C18        -26.5710   -13.0600    14.3890 cy         1 YJZ       0.138000
     14 C19        -27.4180   -13.1310    15.6710 cy         1 YJZ      -0.077900
     15 C20        -28.6260   -13.5430    14.8060 cy         1 YJZ      -0.079700
     16 C21        -29.5150   -14.6510    15.3220 c3         1 YJZ       0.160800
     17 C23        -27.6410   -13.8790    13.6670 cy         1 YJZ      -0.077900
     18 C25        -25.2790   -11.2270    14.0180 c          1 YJZ       0.690100
     19 C27        -21.7120   -13.9710    13.4940 ca         1 YJZ      -0.111000
     20 C28        -21.1110   -14.5950    12.3890 ca         1 YJZ      -0.168000
     21 C29        -21.1030   -13.9960    11.1480 ca         1 YJZ      -0.061000
     22 C30        -21.7130   -12.7430    11.0030 ca         1 YJZ      -0.083800
     23 C31        -20.5850   -11.2230     7.8260 ca         1 YJZ      -0.147000
     24 C32        -20.1250   -11.6010     6.5860 ca         1 YJZ       0.348900
     25 N11        -22.7700   -10.9210    11.7250 na         1 YJZ      -0.191700
     26 N16        -24.4500   -12.2050    14.4360 n          1 YJZ      -0.442800
     27 N22        -30.4530   -15.0750    14.2940 n8         1 YJZ      -0.993200
     28 N33        -20.3960   -12.7770     6.0130 nb         1 YJZ      -0.781000
     29 O02        -21.4590   -14.8070     6.1650 os         1 YJZ      -0.475300
     30 O09        -23.5100    -8.6240    10.5400 o          1 YJZ      -0.693000
     31 O10        -22.9560    -9.3890     8.5100 o          1 YJZ      -0.693000
     32 O24        -26.5200   -11.7140    13.8880 os         1 YJZ      -0.405100
     33 O26        -25.0120   -10.0700    13.7750 o          1 YJZ      -0.530000
     34 H012       -21.3390   -16.1150     4.6440 h1         1 YJZ       0.032700
     35 H011       -21.3240   -14.4200     4.1170 h1         1 YJZ       0.032700
     36 H013       -19.8740   -15.1330     4.8440 h1         1 YJZ       0.032700
     37 H041       -22.2990   -14.0680     8.4520 ha         1 YJZ       0.129000
     38 H141       -22.8140   -10.9770    14.4980 h1         1 YJZ       0.084700
     39 H151       -23.0450   -11.9360    16.7050 hc         1 YJZ       0.037033
     40 H153       -22.7430   -13.5680    16.1130 hc         1 YJZ       0.037033
     41 H152       -21.4670   -12.3570    16.0360 hc         1 YJZ       0.037033
     42 H172       -24.8430   -14.0530    13.5000 h1         1 YJZ       0.062200
     43 H171       -24.8790   -14.1020    15.2700 h1         1 YJZ       0.062200
     44 H191       -27.0840   -13.9500    16.3120 hc         1 YJZ       0.063950
     45 H192       -27.4890   -12.2220    16.2690 hc         1 YJZ       0.063950
     46 H201       -29.2320   -12.6690    14.5480 hc         1 YJZ       0.068700
     47 H211       -28.8890   -15.5080    15.5900 h1         1 YJZ       0.024700
     48 H212       -29.9960   -14.3160    16.2530 h1         1 YJZ       0.024700
     49 H231       -27.8850   -13.5780    12.6490 hc         1 YJZ       0.063950
     50 H232       -27.3770   -14.9390    13.6650 hc         1 YJZ       0.063950
     51 H271       -21.6920   -14.4860    14.4460 ha         1 YJZ       0.088000
     52 H281       -20.6450   -15.5630    12.5220 ha         1 YJZ       0.092000
     53 H291       -20.6310   -14.4860    10.3050 ha         1 YJZ       0.111000
     54 H311       -20.3200   -10.2600     8.2360 ha         1 YJZ       0.141000
     55 H321       -19.4970   -10.9280     6.0130 h4         1 YJZ       0.001100
     56 H111       -23.2960   -10.2560    12.2750 hn         1 YJZ       0.389000
     57 H1         -31.0040   -15.8520    14.6350 hn         1 YJZ       0.390000
     58 H222       -31.1150   -14.3290    14.1160 hn         1 YJZ       0.390000
@<TRIPOS>BOND
     1     1    29 1   
     2     1    34 1   
     3     1    35 1   
     4     1    36 1   
     5     2     3 ar  
     6     2    28 ar  
     7     2    29 1   
     8     3     4 ar  
     9     3    37 1   
    10     4     5 1   
    11     4    23 ar  
    12     5     6 2   
    13     5    22 1   
    14     6     7 1   
    15     6    25 1   
    16     7    30 1   
    17     7    31 1   
    18     8     9 ar  
    19     8    22 ar  
    20     8    25 1   
    21     9    10 1   
    22     9    19 ar  
    23    10    11 1   
    24    10    26 1   
    25    10    38 1   
    26    11    39 1   
    27    11    40 1   
    28    11    41 1   
    29    12    13 1   
    30    12    26 1   
    31    12    42 1   
    32    12    43 1   
    33    13    14 1   
    34    13    17 1   
    35    13    32 1   
    36    14    15 1   
    37    14    44 1   
    38    14    45 1   
    39    15    16 1   
    40    15    17 1   
    41    15    46 1   
    42    16    27 1   
    43    16    47 1   
    44    16    48 1   
    45    17    49 1   
    46    17    50 1   
    47    18    26 1   
    48    18    32 1   
    49    18    33 2   
    50    19    20 ar  
    51    19    51 1   
    52    20    21 ar  
    53    20    52 1   
    54    21    22 ar  
    55    21    53 1   
    56    23    24 ar  
    57    23    54 1   
    58    24    28 ar  
    59    24    55 1   
    60    25    56 1   
    61    27    57 1   
    62    27    58 1   
@<TRIPOS>SUBSTRUCTURE
     1 YJZ         1 TEMP              0 ****  ****    0 ROOT
