@<TRIPOS>MOLECULE
YJZ
   58    62     1     0     0
SMALL
No Charge or Current Charge


@<TRIPOS>ATOM
      1 C01        -20.7550   -14.7820     4.4650 c3         1 YJZ       0.167900
      2 C03        -20.9350   -13.3980     6.4850 ca         1 YJZ       0.557300
      3 C04        -21.5180   -13.2140     7.7460 ca         1 YJZ      -0.198000
      4 C05        -21.1760   -12.0900     8.5090 ca         1 YJZ       0.116200
      5 C06        -21.7420   -11.8950     9.8400 cc         1 YJZ      -0.158400
      6 C07        -22.5890   -10.8400    10.2050 cd         1 YJZ      -0.046300
      7 C08        -23.1100    -9.7280     9.3350 c          1 YJZ       0.722200
      8 C12        -22.2940   -12.1850    12.0030 ca         1 YJZ      -0.057200
      9 C13        -22.3350   -12.7770    13.2830 ca         1 YJZ      -0.135300
     10 C14        -23.1230   -12.1160    14.4250 c3         1 YJZ       0.189000
     11 C15        -22.5570   -12.4100    15.8330 c3         1 YJZ      -0.094100
     12 C17        -25.1450   -13.7630    14.5950 c5         1 YJZ       0.086000
     13 C18        -26.6490   -13.3530    14.5280 cy         1 YJZ       0.138000
     14 C19        -27.4680   -13.2220    15.8620 cy         1 YJZ      -0.077900
     15 C20        -28.7400   -13.5790    15.0200 cy         1 YJZ      -0.079700
     16 C21        -29.8920   -14.3210    15.7150 c3         1 YJZ       0.160800
     17 C23        -27.7510   -14.3910    14.1160 cy         1 YJZ      -0.077900
     18 C25        -25.4590   -11.5520    13.7660 c          1 YJZ       0.690100
     19 C27        -21.6320   -13.9990    13.4500 ca         1 YJZ      -0.111000
     20 C28        -20.9070   -14.5730    12.3810 ca         1 YJZ      -0.168000
     21 C29        -20.8730   -13.9430    11.1230 ca         1 YJZ      -0.061000
     22 C30        -21.5870   -12.7480    10.9770 ca         1 YJZ      -0.083800
     23 C31        -20.2310   -11.2010     7.9790 ca         1 YJZ      -0.147000
     24 C32        -19.6960   -11.4560     6.7100 ca         1 YJZ       0.348900
     25 N11        -22.9210   -11.0200    11.5750 na         1 YJZ      -0.191700
     26 N16        -24.5620   -12.4360    14.3380 n          1 YJZ      -0.442800
     27 N22        -30.9510   -14.8180    14.8210 n8         1 YJZ      -0.993200
     28 N33        -20.0340   -12.5340     5.9670 nb         1 YJZ      -0.781000
     29 O02        -21.3040   -14.5120     5.7700 os         1 YJZ      -0.475300
     30 O09        -23.8390    -8.8980     9.8640 o          1 YJZ      -0.693000
     31 O10        -22.8230    -9.6800     8.1470 o          1 YJZ      -0.693000
     32 O24        -26.6750   -12.1450    13.7510 os         1 YJZ      -0.405100
     33 O26        -25.2040   -10.4410    13.3250 o          1 YJZ      -0.530000
     34 H012       -21.1730   -15.7120     4.0610 h1         1 YJZ       0.032700
     35 H011       -20.9920   -13.9700     3.7650 h1         1 YJZ       0.032700
     36 H013       -19.6640   -14.8940     4.5150 h1         1 YJZ       0.032700
     37 H041       -22.2310   -13.9390     8.1210 ha         1 YJZ       0.129000
     38 H141       -23.0070   -11.0310    14.3000 h1         1 YJZ       0.084700
     39 H151       -23.0810   -11.8060    16.5830 hc         1 YJZ       0.037033
     40 H153       -22.6730   -13.4630    16.1100 hc         1 YJZ       0.037033
     41 H152       -21.4910   -12.1540    15.8780 hc         1 YJZ       0.037033
     42 H172       -24.8550   -14.4770    13.8130 h1         1 YJZ       0.062200
     43 H171       -24.8470   -14.1700    15.5690 h1         1 YJZ       0.062200
     44 H191       -27.2050   -13.9630    16.6260 hc         1 YJZ       0.063950
     45 H192       -27.4650   -12.2320    16.3290 hc         1 YJZ       0.063950
     46 H201       -29.1690   -12.7070    14.5110 hc         1 YJZ       0.068700
     47 H211       -29.4720   -15.1770    16.2620 h1         1 YJZ       0.024700
     48 H212       -30.3460   -13.6390    16.4460 h1         1 YJZ       0.024700
     49 H231       -27.9970   -14.4280    13.0500 hc         1 YJZ       0.063950
     50 H232       -27.5560   -15.4140    14.4600 hc         1 YJZ       0.063950
     51 H271       -21.6390   -14.5180    14.4040 ha         1 YJZ       0.088000
     52 H281       -20.3710   -15.5070    12.5300 ha         1 YJZ       0.092000
     53 H291       -20.3160   -14.3710    10.2930 ha         1 YJZ       0.111000
     54 H311       -19.9170   -10.3250     8.5370 ha         1 YJZ       0.141000
     55 H321       -18.9640   -10.7780     6.2720 h4         1 YJZ       0.001100
     56 H111       -23.5810   -10.4520    12.1020 hn         1 YJZ       0.389000
     57 H1         -31.6990   -15.2360    15.3880 hn         1 YJZ       0.390000
     58 H222       -31.4080   -14.0180    14.3680 hn         1 YJZ       0.390000
@<TRIPOS>BOND
     1     1    29 1   
     2     1    34 1   
     3     1    35 1   
     4     1    36 1   
     5     2     3 ar  
     6     2    28 ar  
     7     2    29 1   
     8     3     4 ar  
     9     3    37 1   
    10     4     5 1   
    11     4    23 ar  
    12     5     6 2   
    13     5    22 1   
    14     6     7 1   
    15     6    25 1   
    16     7    30 1   
    17     7    31 1   
    18     8     9 ar  
    19     8    22 ar  
    20     8    25 1   
    21     9    10 1   
    22     9    19 ar  
    23    10    11 1   
    24    10    26 1   
    25    10    38 1   
    26    11    39 1   
    27    11    40 1   
    28    11    41 1   
    29    12    13 1   
    30    12    26 1   
    31    12    42 1   
    32    12    43 1   
    33    13    14 1   
    34    13    17 1   
    35    13    32 1   
    36    14    15 1   
    37    14    44 1   
    38    14    45 1   
    39    15    16 1   
    40    15    17 1   
    41    15    46 1   
    42    16    27 1   
    43    16    47 1   
    44    16    48 1   
    45    17    49 1   
    46    17    50 1   
    47    18    26 1   
    48    18    32 1   
    49    18    33 2   
    50    19    20 ar  
    51    19    51 1   
    52    20    21 ar  
    53    20    52 1   
    54    21    22 ar  
    55    21    53 1   
    56    23    24 ar  
    57    23    54 1   
    58    24    28 ar  
    59    24    55 1   
    60    25    56 1   
    61    27    57 1   
    62    27    58 1   
@<TRIPOS>SUBSTRUCTURE
     1 YJZ         1 TEMP              0 ****  ****    0 ROOT
