@<TRIPOS>MOLECULE
YK0
   55    58     1     0     0
SMALL
No Charge or Current Charge


@<TRIPOS>ATOM
      1 N1         -38.3840    39.0070    41.8840 nc         1 YK0      -0.273400
      2 N3         -32.7560    39.3280    42.0590 ns         1 YK0      -0.139000
      3 C4         -34.9070    39.5270    43.2750 ca         1 YK0      -0.080300
      4 C5         -36.3320    39.4470    43.2440 ca         1 YK0      -0.040000
      5 C6         -37.0000    39.1200    42.0590 ca         1 YK0      -0.075000
      6 C7         -37.2260    38.5680    39.9010 cc         1 YK0      -0.184100
      7 C8         -36.2800    38.8720    40.9200 ca         1 YK0      -0.134000
      8 C10        -34.1800    39.2640    42.0590 ca         1 YK0      -0.055000
      9 C13        -29.2650    39.2930    40.6950 ca         1 YK0      -0.079000
     10 C15        -27.7690    39.5860    42.5670 ca         1 YK0      -0.094000
     11 C17        -28.7040    39.8520    44.9320 c3         1 YK0       0.269700
     12 C20        -41.9620    37.5800    39.8980 ca         1 YK0      -0.085000
     13 C21        -42.1890    38.1210    38.6180 ca         1 YK0      -0.083300
     14 C22        -43.5350    37.9320    37.9290 c3         1 YK0       0.209900
     15 C24        -39.9190    39.0220    38.6200 ca         1 YK0      -0.104500
     16 C1         -33.3780    41.2040    44.5130 c3         1 YK0      -0.120100
     17 C2         -34.1930    39.8890    44.6200 c3         1 YK0       0.236300
     18 C3         -33.3190    38.7200    45.1390 c3         1 YK0      -0.120100
     19 O1         -35.1520    40.1290    45.6540 oh         1 YK0      -0.664000
     20 N2         -38.4540    38.6560    40.5360 na         1 YK0       0.244700
     21 C9         -34.8880    38.9300    40.8760 ca         1 YK0      -0.060000
     22 C11        -31.7860    39.2470    41.0620 c          1 YK0       0.510600
     23 O2         -32.0390    39.1040    39.8670 o          1 YK0      -0.579100
     24 C12        -30.3550    39.3650    41.5900 ca         1 YK0       0.290500
     25 C14        -27.9540    39.4040    41.1870 ca         1 YK0      -0.086000
     26 C16        -28.8930    39.6530    43.4150 ca         1 YK0       0.238300
     27 N4         -30.1590    39.5430    42.9320 nb         1 YK0      -0.650000
     28 F1         -29.8740    39.9790    45.6060 f          1 YK0      -0.105333
     29 F2         -27.9800    40.9630    45.2020 f          1 YK0      -0.105333
     30 F3         -28.0450    38.8100    45.4900 f          1 YK0      -0.105333
     31 C18        -39.6890    38.4800    39.9020 ca         1 YK0       0.001800
     32 C19        -40.7220    37.7590    40.5360 ca         1 YK0      -0.104500
     33 O3         -43.5260    36.7360    37.1420 oh         1 YK0      -0.656000
     34 C23        -41.1600    38.8430    37.9830 ca         1 YK0      -0.085000
     35 H1         -32.3550    39.4650    42.9780 hn         1 YK0       0.181000
     36 H2         -36.9340    39.6340    44.1280 ha         1 YK0       0.150000
     37 H3         -37.1390    38.3020    38.8550 h4         1 YK0       0.232000
     38 H4         -29.4370    39.1520    39.6310 ha         1 YK0       0.157000
     39 H5         -26.7660    39.6750    42.9780 ha         1 YK0       0.145000
     40 H6         -42.7480    37.0180    40.3980 ha         1 YK0       0.124500
     41 H7         -43.7430    38.8040    37.2950 h1         1 YK0       0.029200
     42 H8         -44.3270    37.8830    38.6890 h1         1 YK0       0.029200
     43 H9         -39.1410    39.5910    38.1160 ha         1 YK0       0.134500
     44 H10        -33.0150    41.5220    45.4990 hc         1 YK0       0.044367
     45 H11        -32.4990    41.1030    43.8710 hc         1 YK0       0.044367
     46 H12        -34.0030    42.0100    44.1080 hc         1 YK0       0.044367
     47 H13        -32.9180    38.9420    46.1360 hc         1 YK0       0.044367
     48 H14        -33.9130    37.8010    45.2110 hc         1 YK0       0.044367
     49 H15        -32.4640    38.5160    44.4890 hc         1 YK0       0.044367
     50 H16        -34.6450    40.3440    46.4650 ho         1 YK0       0.445000
     51 H17        -34.3900    38.7090    39.9390 ha         1 YK0       0.132000
     52 H18        -27.1010    39.3500    40.5140 ha         1 YK0       0.134000
     53 H19        -40.5640    37.3290    41.5230 ha         1 YK0       0.134500
     54 H20        -44.4130    36.6660    36.7250 ho         1 YK0       0.446000
     55 H21        -41.3230    39.2670    36.9950 ha         1 YK0       0.124500
@<TRIPOS>BOND
     1     1     5 2   
     2     1    20 1   
     3     2     8 1   
     4     2    22 1   
     5     2    35 1   
     6     3     4 ar  
     7     3     8 ar  
     8     3    17 1   
     9     4     5 ar  
    10     4    36 1   
    11     5     7 ar  
    12     6     7 2   
    13     6    20 1   
    14     6    37 1   
    15     7    21 ar  
    16     8    21 ar  
    17     9    24 ar  
    18     9    25 ar  
    19     9    38 1   
    20    10    25 ar  
    21    10    26 ar  
    22    10    39 1   
    23    11    26 1   
    24    11    28 1   
    25    11    29 1   
    26    11    30 1   
    27    12    13 ar  
    28    12    32 ar  
    29    12    40 1   
    30    13    14 1   
    31    13    34 ar  
    32    14    33 1   
    33    14    41 1   
    34    14    42 1   
    35    15    31 ar  
    36    15    34 ar  
    37    15    43 1   
    38    16    17 1   
    39    16    44 1   
    40    16    45 1   
    41    16    46 1   
    42    17    18 1   
    43    17    19 1   
    44    18    47 1   
    45    18    48 1   
    46    18    49 1   
    47    19    50 1   
    48    20    31 1   
    49    21    51 1   
    50    22    23 2   
    51    22    24 1   
    52    24    27 ar  
    53    25    52 1   
    54    26    27 ar  
    55    31    32 ar  
    56    32    53 1   
    57    33    54 1   
    58    34    55 1   
@<TRIPOS>SUBSTRUCTURE
     1 YK0         1 TEMP              0 ****  ****    0 ROOT
