@<TRIPOS>MOLECULE
YK0
   55    58     1     0     0
SMALL
abcg2


@<TRIPOS>ATOM
      1 N1         -38.2210    39.0210    41.7550 nc         1 YK0      -0.273400
      2 N3         -32.7360    39.0250    42.1720 ns         1 YK0      -0.139000
      3 C4         -34.9040    39.4950    43.2640 ca         1 YK0      -0.080300
      4 C5         -36.2720    39.4980    43.1890 ca         1 YK0      -0.040000
      5 C6         -36.9150    39.0520    42.0150 ca         1 YK0      -0.075000
      6 C7         -37.1080    38.2330    39.9680 cc         1 YK0      -0.184100
      7 C8         -36.1580    38.5710    40.9200 ca         1 YK0      -0.134000
      8 C10        -34.1440    39.0050    42.1320 ca         1 YK0      -0.055000
      9 C13        -29.4980    39.9240    40.7150 ca         1 YK0      -0.079000
     10 C15        -27.9120    39.7980    42.5050 ca         1 YK0      -0.094000
     11 C17        -28.8030    39.2100    44.8080 c3         1 YK0       0.269700
     12 C20        -41.9230    37.9810    40.1030 ca         1 YK0      -0.085000
     13 C21        -42.0730    38.0560    38.7230 ca         1 YK0      -0.083300
     14 C22        -43.4330    37.9270    38.0960 c3         1 YK0       0.209900
     15 C24        -39.6970    38.4590    38.5330 ca         1 YK0      -0.104500
     16 C1         -33.3500    41.2390    44.2510 c3         1 YK0      -0.120100
     17 C2         -34.2370    40.0230    44.5410 c3         1 YK0       0.236300
     18 C3         -33.4590    38.9240    45.2810 c3         1 YK0      -0.120100
     19 O1         -35.2940    40.4390    45.3880 oh         1 YK0      -0.664000
     20 N2         -38.3000    38.5290    40.5200 na         1 YK0       0.244700
     21 C9         -34.7540    38.5330    41.0010 ca         1 YK0      -0.060000
     22 C11        -31.9240    39.5120    41.2110 c          1 YK0       0.510600
     23 O2         -32.2680    39.8910    40.1080 o          1 YK0      -0.579100
     24 C12        -30.4830    39.5840    41.6350 ca         1 YK0       0.290500
     25 C14        -28.1930    40.0240    41.1640 ca         1 YK0      -0.086000
     26 C16        -28.9700    39.4670    43.3340 ca         1 YK0       0.238300
     27 N4         -30.2150    39.3550    42.9100 nb         1 YK0      -0.650000
     28 F1         -29.5700    40.0320    45.5300 f          1 YK0      -0.105333
     29 F2         -27.5420    39.3740    45.2080 f          1 YK0      -0.105333
     30 F3         -29.1690    37.9640    45.1230 f          1 YK0      -0.105333
     31 C18        -39.5680    38.3740    39.9140 ca         1 YK0       0.001800
     32 C19        -40.6850    38.1390    40.7050 ca         1 YK0      -0.104500
     33 O3         -43.3260    37.2340    36.8760 oh         1 YK0      -0.656000
     34 C23        -40.9420    38.2940    37.9470 ca         1 YK0      -0.085000
     35 H1         -32.2660    38.7660    43.0260 hn         1 YK0       0.181000
     36 H2         -36.8730    39.8540    44.0120 ha         1 YK0       0.150000
     37 H3         -37.0150    37.7990    38.9870 h4         1 YK0       0.232000
     38 H4         -29.7490    40.1050    39.6800 ha         1 YK0       0.157000
     39 H5         -26.9010    39.8820    42.8750 ha         1 YK0       0.145000
     40 H6         -42.7870    37.7870    40.7280 ha         1 YK0       0.124500
     41 H7         -43.8470    38.9330    37.9480 h1         1 YK0       0.029200
     42 H8         -44.1050    37.4170    38.7990 h1         1 YK0       0.029200
     43 H9         -38.8410    38.6730    37.9070 ha         1 YK0       0.134500
     44 H10        -32.9820    41.6560    45.1920 hc         1 YK0       0.044367
     45 H11        -32.4770    41.0010    43.6500 hc         1 YK0       0.044367
     46 H12        -33.9190    42.0130    43.7350 hc         1 YK0       0.044367
     47 H13        -33.1550    39.2960    46.2620 hc         1 YK0       0.044367
     48 H14        -34.0800    38.0410    45.4290 hc         1 YK0       0.044367
     49 H15        -32.5400    38.6090    44.7900 hc         1 YK0       0.044367
     50 H16        -34.9020    40.8010    46.1900 ho         1 YK0       0.445000
     51 H17        -34.1700    38.1360    40.1830 ha         1 YK0       0.132000
     52 H18        -27.3970    40.2820    40.4790 ha         1 YK0       0.134000
     53 H19        -40.5870    38.0640    41.7780 ha         1 YK0       0.134500
     54 H20        -44.1480    37.3480    36.3920 ho         1 YK0       0.446000
     55 H21        -41.0240    38.3680    36.8710 ha         1 YK0       0.124500
@<TRIPOS>BOND
     1     1     5 2   
     2     1    20 1   
     3     2     8 1   
     4     2    22 1   
     5     2    35 1   
     6     3     4 ar  
     7     3     8 ar  
     8     3    17 1   
     9     4     5 ar  
    10     4    36 1   
    11     5     7 ar  
    12     6     7 2   
    13     6    20 1   
    14     6    37 1   
    15     7    21 ar  
    16     8    21 ar  
    17     9    24 ar  
    18     9    25 ar  
    19     9    38 1   
    20    10    25 ar  
    21    10    26 ar  
    22    10    39 1   
    23    11    26 1   
    24    11    28 1   
    25    11    29 1   
    26    11    30 1   
    27    12    13 ar  
    28    12    32 ar  
    29    12    40 1   
    30    13    14 1   
    31    13    34 ar  
    32    14    33 1   
    33    14    41 1   
    34    14    42 1   
    35    15    31 ar  
    36    15    34 ar  
    37    15    43 1   
    38    16    17 1   
    39    16    44 1   
    40    16    45 1   
    41    16    46 1   
    42    17    18 1   
    43    17    19 1   
    44    18    47 1   
    45    18    48 1   
    46    18    49 1   
    47    19    50 1   
    48    20    31 1   
    49    21    51 1   
    50    22    23 2   
    51    22    24 1   
    52    24    27 ar  
    53    25    52 1   
    54    26    27 ar  
    55    31    32 ar  
    56    32    53 1   
    57    33    54 1   
    58    34    55 1   
@<TRIPOS>SUBSTRUCTURE
     1 YK0         1 TEMP              0 ****  ****    0 ROOT
