@<TRIPOS>MOLECULE
YK1
   57    60     1     0     0
SMALL
bcc


@<TRIPOS>ATOM
      1 C2          14.3490   -36.7510    35.7980 ca         1 YK1       0.969900
      2 C4          13.9540   -35.5720    33.8920 ca         1 YK1       0.805200
      3 C5          15.2590   -35.8700    33.4190 ca         1 YK1      -0.521200
      4 C6          16.0180   -36.6430    34.2930 ca         1 YK1       0.536200
      5 C7          15.7360   -35.3950    32.1050 c          1 YK1       0.722700
      6 N10         13.0940   -34.8140    33.1890 nu         1 YK1      -0.765300
      7 C11         11.7520   -34.6440    33.5670 ca         1 YK1       0.163600
      8 C12         11.2540   -33.4270    34.0390 ca         1 YK1      -0.174300
      9 C15          9.5220   -35.5860    33.7450 ca         1 YK1      -0.141000
     10 C16         10.8620   -35.7000    33.4370 ca         1 YK1       0.141900
     11 C18         12.1970   -32.2750    34.2280 c3         1 YK1       0.726200
     12 N22         13.9510   -37.2190    37.0010 nu         1 YK1      -0.712300
     13 C23         12.7890   -36.9840    37.7350 ca         1 YK1       0.146600
     14 C24         11.7420   -36.1620    37.3500 ca         1 YK1      -0.120000
     15 C27         11.6010   -37.4350    39.7960 ca         1 YK1      -0.188000
     16 C30         13.7950   -39.0260    40.5800 c3         1 YK1       0.131700
     17 C31          9.3590   -36.3960    40.2870 c6         1 YK1      -0.026100
     18 C32          8.1880   -35.8090    39.5170 c6         1 YK1       0.167800
     19 C34          9.5200   -35.0740    37.6830 c6         1 YK1       0.215100
     20 N1          15.6060   -37.0870    35.4610 nb         1 YK1      -0.805000
     21 N3          13.5230   -36.0280    35.0620 nb         1 YK1      -0.853000
     22 O8          15.0600   -34.6230    31.4220 o          1 YK1      -0.652100
     23 N9          16.9360   -35.8170    31.6750 nt         1 YK1      -0.664000
     24 C13          9.9050   -33.2860    34.3410 ca         1 YK1      -0.098000
     25 C14          9.0470   -34.3650    34.1930 ca         1 YK1      -0.115000
     26 F17         11.3310   -36.8650    32.9870 f          1 YK1      -0.123900
     27 F19         12.7620   -31.8970    33.0740 f          1 YK1      -0.229633
     28 F20         11.5870   -31.2000    34.7310 f          1 YK1      -0.229633
     29 F21         13.1900   -32.5790    35.0720 f          1 YK1      -0.229633
     30 C25         10.6310   -35.9650    38.1710 ca         1 YK1      -0.083300
     31 C26         10.5520   -36.6030    39.3970 ca         1 YK1      -0.051300
     32 C28         12.7050   -37.6320    38.9890 ca         1 YK1       0.093100
     33 N33          8.6320   -34.6640    38.7470 n3         1 YK1      -0.711600
     34 H1          17.0380   -36.9170    34.0440 h4         1 YK1       0.011100
     35 H2          13.4520   -34.4270    32.3180 hn         1 YK1       0.514800
     36 H3           8.8630   -36.4360    33.6290 ha         1 YK1       0.157000
     37 H4          14.6520   -37.7760    37.4660 hn         1 YK1       0.474800
     38 H5          11.7840   -35.6570    36.3970 ha         1 YK1       0.171000
     39 H6          11.5320   -37.9320    40.7560 ha         1 YK1       0.134000
     40 H7          14.7330   -39.5730    40.6330 h1         1 YK1       0.041367
     41 H8          13.7700   -38.2870    41.3840 h1         1 YK1       0.041367
     42 H9          12.9690   -39.7280    40.7200 h1         1 YK1       0.041367
     43 H10          9.0640   -37.3400    40.7490 hc         1 YK1       0.054200
     44 H11          9.6260   -35.7210    41.1060 hc         1 YK1       0.054200
     45 H12          7.4150   -35.4880    40.2180 h1         1 YK1       0.032700
     46 H13          7.7340   -36.5810    38.8730 h1         1 YK1       0.032700
     47 H14          9.9450   -34.1810    37.2130 h1         1 YK1       0.039200
     48 H15          8.9680   -35.5980    36.8800 h1         1 YK1       0.039200
     49 H16          6.8980   -33.5400    39.0450 h1         1 YK1       0.029700
     50 H17          7.9100   -33.0100    37.7010 h1         1 YK1       0.029700
     51 H18          6.8960   -34.4490    37.5230 h1         1 YK1       0.029700
     52 H19         17.2560   -35.5160    30.7690 hn         1 YK1       0.315500
     53 H20         17.4790   -36.5300    32.1280 hn         1 YK1       0.315500
     54 H21          9.5140   -32.3470    34.7050 ha         1 YK1       0.157000
     55 H22          7.9990   -34.2550    34.4350 ha         1 YK1       0.143000
     56 O29         13.7580   -38.4160    39.3060 os         1 YK1      -0.338900
     57 C35          7.5310   -33.8880    38.2270 c3         1 YK1       0.154100
@<TRIPOS>BOND
     1     1    12 1   
     2     1    20 ar  
     3     1    21 ar  
     4     2     3 ar  
     5     2     6 1   
     6     2    21 ar  
     7     3     4 ar  
     8     3     5 1   
     9     4    20 ar  
    10     4    34 1   
    11     5    22 2   
    12     5    23 1   
    13     6     7 1   
    14     6    35 1   
    15     7     8 ar  
    16     7    10 ar  
    17     8    11 1   
    18     8    24 ar  
    19     9    10 ar  
    20     9    25 ar  
    21     9    36 1   
    22    10    26 1   
    23    11    27 1   
    24    11    28 1   
    25    11    29 1   
    26    12    13 1   
    27    12    37 1   
    28    13    14 ar  
    29    13    32 ar  
    30    14    30 ar  
    31    14    38 1   
    32    15    31 ar  
    33    15    32 ar  
    34    15    39 1   
    35    16    40 1   
    36    16    41 1   
    37    16    42 1   
    38    16    56 1   
    39    17    18 1   
    40    17    31 1   
    41    17    43 1   
    42    17    44 1   
    43    18    33 1   
    44    18    45 1   
    45    18    46 1   
    46    19    30 1   
    47    19    33 1   
    48    19    47 1   
    49    19    48 1   
    50    23    52 1   
    51    23    53 1   
    52    24    25 ar  
    53    24    54 1   
    54    25    55 1   
    55    30    31 ar  
    56    32    56 1   
    57    33    57 1   
    58    49    57 1   
    59    50    57 1   
    60    51    57 1   
@<TRIPOS>SUBSTRUCTURE
     1 YK1         1 TEMP              0 ****  ****    0 ROOT
