@<TRIPOS>MOLECULE
YK1
   57    60     1     0     0
SMALL
No Charge or Current Charge


@<TRIPOS>ATOM
      1 C2          14.5160   -36.4840    36.0320 ca         1 YK1       0.443900
      2 C4          13.9940   -35.6030    33.9990 ca         1 YK1       0.476900
      3 C5          15.3150   -35.7800    33.5640 ca         1 YK1      -0.390600
      4 C6          16.1970   -36.3680    34.4940 ca         1 YK1       0.207900
      5 C7          15.7810   -35.3640    32.2070 c          1 YK1       0.655700
      6 N10         13.0340   -35.0150    33.2010 nu         1 YK1      -0.958900
      7 C11         11.6960   -34.6410    33.4330 ca         1 YK1       0.302000
      8 C12         11.2860   -33.3020    33.1920 ca         1 YK1      -0.174300
      9 C15          9.4140   -35.1960    34.1660 ca         1 YK1      -0.123000
     10 C16         10.7370   -35.5820    33.9110 ca         1 YK1       0.177000
     11 C18         12.2790   -32.2470    32.6740 c3         1 YK1       0.362300
     12 N22         14.1270   -36.8650    37.3060 nu         1 YK1      -0.905900
     13 C23         12.9170   -36.8410    38.0300 ca         1 YK1       0.285000
     14 C24         11.8870   -35.9190    37.7490 ca         1 YK1      -0.102000
     15 C27         11.5290   -37.7750    39.8240 ca         1 YK1      -0.170000
     16 C30         13.6840   -39.6260    40.4360 c3         1 YK1       0.154900
     17 C31          9.1990   -36.8840    40.3150 c6         1 YK1      -0.026100
     18 C32          8.0540   -36.0890    39.6420 c6         1 YK1       0.167800
     19 C34          9.5700   -34.9420    38.1040 c6         1 YK1       0.215100
     20 N1          15.7980   -36.7220    35.7300 nb         1 YK1      -0.279000
     21 N3          13.6000   -35.9420    35.2280 nb         1 YK1      -0.327000
     22 O8          15.0730   -34.7670    31.4140 o          1 YK1      -0.652100
     23 N9          17.0480   -35.6510    31.8620 nt         1 YK1      -0.597000
     24 C13          9.9430   -32.9340    33.4590 ca         1 YK1      -0.080000
     25 C14          9.0180   -33.8710    33.9460 ca         1 YK1      -0.097000
     26 F17         11.0660   -36.8840    34.0960 f          1 YK1      -0.159000
     27 F19         12.8000   -32.5960    31.4760 f          1 YK1      -0.108333
     28 F20         11.7170   -31.0280    32.5010 f          1 YK1      -0.108333
     29 F21         13.3160   -32.0680    33.5250 f          1 YK1      -0.108333
     30 C25         10.6820   -35.9330    38.4730 ca         1 YK1      -0.083300
     31 C26         10.4990   -36.8710    39.5080 ca         1 YK1      -0.051300
     32 C28         12.7400   -37.7660    39.0930 ca         1 YK1       0.093100
     33 N33          8.5310   -34.7710    39.1540 n3         1 YK1      -0.711600
     34 H1          17.2440   -36.5540    34.2650 h4         1 YK1       0.011100
     35 H2          13.4660   -34.6220    32.3560 hn         1 YK1       0.570000
     36 H3           8.6960   -35.9280    34.5280 ha         1 YK1       0.139000
     37 H4          14.8300   -37.4470    37.7620 hn         1 YK1       0.530000
     38 H5          12.0130   -35.1730    36.9730 ha         1 YK1       0.153000
     39 H6          11.3710   -38.4770    40.6380 ha         1 YK1       0.116000
     40 H7          14.6080   -40.2140    40.4880 h1         1 YK1       0.041367
     41 H8          13.5360   -39.1390    41.4080 h1         1 YK1       0.041367
     42 H9          12.8510   -40.3180    40.2570 h1         1 YK1       0.041367
     43 H10          8.8690   -37.9170    40.4870 hc         1 YK1       0.054200
     44 H11          9.3950   -36.4540    41.3060 hc         1 YK1       0.054200
     45 H12          7.2390   -35.9620    40.3690 h1         1 YK1       0.032700
     46 H13          7.6520   -36.6770    38.8040 h1         1 YK1       0.032700
     47 H14         10.0280   -33.9680    37.8750 h1         1 YK1       0.039200
     48 H15          9.1040   -35.2970    37.1730 h1         1 YK1       0.039200
     49 H16          6.7090   -33.7320    39.5240 h1         1 YK1       0.029700
     50 H17          7.8160   -32.9100    38.4040 h1         1 YK1       0.029700
     51 H18          6.8940   -34.3320    37.8580 h1         1 YK1       0.029700
     52 H19         17.3810   -35.3720    30.9510 hn         1 YK1       0.315500
     53 H20         17.6510   -36.1420    32.5010 hn         1 YK1       0.315500
     54 H21          9.6000   -31.9150    33.2940 ha         1 YK1       0.139000
     55 H22          7.9920   -33.5690    34.1450 ha         1 YK1       0.125000
     56 O29         13.7730   -38.6490    39.3830 os         1 YK1      -0.362100
     57 C35          7.4290   -33.8910    38.7110 c3         1 YK1       0.154100
@<TRIPOS>BOND
     1     1    12 1   
     2     1    20 ar  
     3     1    21 ar  
     4     2     3 ar  
     5     2     6 1   
     6     2    21 ar  
     7     3     4 ar  
     8     3     5 1   
     9     4    20 ar  
    10     4    34 1   
    11     5    22 2   
    12     5    23 1   
    13     6     7 1   
    14     6    35 1   
    15     7     8 ar  
    16     7    10 ar  
    17     8    11 1   
    18     8    24 ar  
    19     9    10 ar  
    20     9    25 ar  
    21     9    36 1   
    22    10    26 1   
    23    11    27 1   
    24    11    28 1   
    25    11    29 1   
    26    12    13 1   
    27    12    37 1   
    28    13    14 ar  
    29    13    32 ar  
    30    14    30 ar  
    31    14    38 1   
    32    15    31 ar  
    33    15    32 ar  
    34    15    39 1   
    35    16    40 1   
    36    16    41 1   
    37    16    42 1   
    38    16    56 1   
    39    17    18 1   
    40    17    31 1   
    41    17    43 1   
    42    17    44 1   
    43    18    33 1   
    44    18    45 1   
    45    18    46 1   
    46    19    30 1   
    47    19    33 1   
    48    19    47 1   
    49    19    48 1   
    50    23    52 1   
    51    23    53 1   
    52    24    25 ar  
    53    24    54 1   
    54    25    55 1   
    55    30    31 ar  
    56    32    56 1   
    57    33    57 1   
    58    49    57 1   
    59    50    57 1   
    60    51    57 1   
@<TRIPOS>SUBSTRUCTURE
     1 YK1         1 TEMP              0 ****  ****    0 ROOT
