@<TRIPOS>MOLECULE
YK2
   63    67     1     0     0
SMALL
bcc


@<TRIPOS>ATOM
      1 C01         -9.1180    -1.2500    61.7130 ca         1 YK2      -0.300900
      2 C02         -9.5900    -0.6000    60.5770 ca         1 YK2      -0.028000
      3 C03         -8.9260    -2.7280    61.7150 c          1 YK2       0.696700
      4 C04         -8.9700    -0.4790    62.8590 ca         1 YK2       0.469200
      5 C05        -10.2710    -0.1640    52.2990 c3         1 YK2       0.211600
      6 C06         -9.8260     0.7580    60.5990 ca         1 YK2      -0.268300
      7 C07         -9.6120     1.4430    61.8010 ca         1 YK2       0.690200
      8 C08         -9.2140     1.7700    51.1090 c3         1 YK2       0.211600
      9 C09         -3.4400    -3.9970    65.0110 c3         1 YK2      -0.091100
     10 C10         -9.9340     3.8210    61.0890 ca         1 YK2       0.911900
     11 C11         -4.8740    -4.5000    65.0000 c3         1 YK2       0.168800
     12 C12         -9.9070     4.6030    58.9370 cp         1 YK2       0.540800
     13 C13         -9.7630     4.2850    57.5080 cp         1 YK2      -0.187500
     14 C14        -10.1210     5.8760    59.4510 ca         1 YK2      -0.150700
     15 C15         -6.8550    -4.8900    63.7150 c6         1 YK2       0.150300
     16 C16        -10.2160     6.0370    60.8190 ca         1 YK2       0.447200
     17 C17        -10.1480     3.0160    57.0700 ca         1 YK2      -0.020000
     18 C18         -9.9620     2.6840    55.7460 ca         1 YK2      -0.093100
     19 C19         -9.3890     3.5740    54.8170 ca         1 YK2       0.175400
     20 C20         -9.1960     5.1830    56.5900 ca         1 YK2      -0.079000
     21 C21         -5.8250    -2.7510    63.6300 c6         1 YK2       0.150300
     22 C22         -9.0040     4.8380    55.2660 ca         1 YK2      -0.114000
     23 C23         -7.5760    -4.6320    62.4040 c6         1 YK2       0.095500
     24 C24         -9.6830     1.8760    53.4560 cc         1 YK2       0.658100
     25 C25         -6.5260    -2.4620    62.3170 c6         1 YK2       0.095500
     26 F01        -10.2620     6.9500    58.6640 f          1 YK2      -0.124900
     27 N01         -7.7710    -3.2050    62.2260 n          1 YK2      -0.475800
     28 N02         -9.2170     0.8190    62.9080 nb         1 YK2      -0.742000
     29 N03         -9.8220     2.7930    61.9860 nu         1 YK2      -0.838600
     30 N04         -5.5960    -4.1750    63.7820 n3         1 YK2      -0.717600
     31 N05         -9.8320     3.5840    59.7940 nb         1 YK2      -0.760000
     32 N06         -9.6420     1.1390    52.3430 nh         1 YK2      -0.728600
     33 N07        -10.1160     5.0180    61.6500 nb         1 YK2      -0.738000
     34 N08         -9.2550     3.1020    53.5450 nd         1 YK2      -0.645100
     35 O01         -9.8200    -3.4520    61.2950 o          1 YK2      -0.595100
     36 S01        -10.3420     1.1880    54.9440 ss         1 YK2      -0.153100
     37 H1          -9.7630    -1.1530    59.6620 ha         1 YK2       0.151000
     38 H2          -8.6460    -0.9370    63.7890 h4         1 YK2       0.025100
     39 H3          -9.9470    -0.7830    53.1370 h1         1 YK2       0.049033
     40 H4         -11.3620    -0.0990    52.3120 h1         1 YK2       0.049033
     41 H5          -9.9700    -0.6720    51.3880 h1         1 YK2       0.049033
     42 H6         -10.1750     1.2690    59.7190 ha         1 YK2       0.171000
     43 H7          -8.3240     2.3710    51.2790 h1         1 YK2       0.049033
     44 H8          -8.9760     0.9970    50.3850 h1         1 YK2       0.049033
     45 H9          -9.9920     2.4140    50.6900 h1         1 YK2       0.049033
     46 H10         -2.9220    -4.3820    65.8890 hc         1 YK2       0.038367
     47 H11         -2.9020    -4.3370    64.1260 hc         1 YK2       0.038367
     48 H12         -3.3730    -2.9100    65.0520 hc         1 YK2       0.038367
     49 H14         -4.8600    -5.5900    65.0880 h1         1 YK2       0.030700
     50 H15         -5.4040    -4.1280    65.8930 h1         1 YK2       0.030700
     51 H18         -7.5270    -4.6200    64.5490 h1         1 YK2       0.040200
     52 H19         -6.6610    -5.9620    63.7960 h1         1 YK2       0.040200
     53 H20        -10.3820     7.0220    61.2430 h4         1 YK2       0.043100
     54 H22        -10.5890     2.3100    57.7610 ha         1 YK2       0.152000
     55 H23         -8.8600     6.1570    56.9140 ha         1 YK2       0.143000
     56 H24         -6.4240    -2.3420    64.4630 h1         1 YK2       0.040200
     57 H25         -4.8740    -2.2180    63.6220 h1         1 YK2       0.040200
     58 H26         -8.5480     5.5370    54.5780 ha         1 YK2       0.151000
     59 H27         -8.5380    -5.1390    62.4100 h1         1 YK2       0.059200
     60 H28         -6.9900    -5.0330    61.5690 h1         1 YK2       0.059200
     61 H29         -5.8760    -2.7640    61.4870 h1         1 YK2       0.059200
     62 H30         -6.6990    -1.3950    62.2150 h1         1 YK2       0.059200
     63 H31         -9.7730     3.0880    62.9510 hn         1 YK2       0.473800
@<TRIPOS>BOND
     1     1     2 ar  
     2     1     3 1   
     3     1     4 ar  
     4     2     6 ar  
     5     2    37 1   
     6     3    27 1   
     7     3    35 2   
     8     4    28 ar  
     9     4    38 1   
    10     5    32 1   
    11     5    39 1   
    12     5    40 1   
    13     5    41 1   
    14     6     7 ar  
    15     6    42 1   
    16     7    28 ar  
    17     7    29 1   
    18     8    32 1   
    19     8    43 1   
    20     8    44 1   
    21     8    45 1   
    22     9    11 1   
    23     9    46 1   
    24     9    47 1   
    25     9    48 1   
    26    10    29 1   
    27    10    31 ar  
    28    10    33 ar  
    29    11    30 1   
    30    11    49 1   
    31    11    50 1   
    32    12    13 1   
    33    12    14 ar  
    34    12    31 ar  
    35    13    17 ar  
    36    13    20 ar  
    37    14    16 ar  
    38    14    26 1   
    39    15    23 1   
    40    15    30 1   
    41    15    51 1   
    42    15    52 1   
    43    16    33 ar  
    44    16    53 1   
    45    17    18 ar  
    46    17    54 1   
    47    18    19 ar  
    48    18    36 1   
    49    19    22 ar  
    50    19    34 1   
    51    20    22 ar  
    52    20    55 1   
    53    21    25 1   
    54    21    30 1   
    55    21    56 1   
    56    21    57 1   
    57    22    58 1   
    58    23    27 1   
    59    23    59 1   
    60    23    60 1   
    61    24    32 1   
    62    24    34 2   
    63    24    36 1   
    64    25    27 1   
    65    25    61 1   
    66    25    62 1   
    67    29    63 1   
@<TRIPOS>SUBSTRUCTURE
     1 YK2         1 TEMP              0 ****  ****    0 ROOT
