@<TRIPOS>MOLECULE
YK2
   63    67     1     0     0
SMALL
No Charge or Current Charge


@<TRIPOS>ATOM
      1 C01         -8.2580    -1.3570    61.3870 ca         1 YK2      -0.235600
      2 C02         -8.3670    -0.7100    60.1420 ca         1 YK2      -0.010000
      3 C03         -7.9150    -2.8140    61.4630 c          1 YK2       0.629700
      4 C04         -8.5500    -0.6220    62.5500 ca         1 YK2       0.403900
      5 C05        -10.9580     0.4090    51.4720 c3         1 YK2       0.211600
      6 C06         -8.7230     0.6470    60.1280 ca         1 YK2      -0.185000
      7 C07         -8.9710     1.2880    61.3510 ca         1 YK2       0.624900
      8 C08        -10.1220     2.5380    50.3820 c3         1 YK2       0.211600
      9 C09         -3.7840    -4.5350    66.5340 c3         1 YK2      -0.091100
     10 C10         -9.6200     3.6840    60.7370 ca         1 YK2       0.385900
     11 C11         -5.1800    -5.0160    66.0890 c3         1 YK2       0.168800
     12 C12         -9.9140     4.6040    58.6360 cp         1 YK2       0.212500
     13 C13         -9.9060     4.3860    57.1490 cp         1 YK2      -0.187500
     14 C14        -10.2200     5.8440    59.2620 ca         1 YK2       0.015000
     15 C15         -6.8510    -5.2020    64.2900 c6         1 YK2       0.150300
     16 C16        -10.1910     5.9020    60.6650 ca         1 YK2       0.118900
     17 C17        -10.3110     3.1390    56.5970 ca         1 YK2      -0.002000
     18 C18        -10.2870     2.9550    55.2070 ca         1 YK2      -0.220000
     19 C19         -9.8760     3.9460    54.3430 ca         1 YK2       0.175400
     20 C20         -9.4740     5.4000    56.2460 ca         1 YK2      -0.061000
     21 C21         -5.7540    -3.0620    64.6520 c6         1 YK2       0.150300
     22 C22         -9.4610     5.1830    54.8540 ca         1 YK2      -0.096000
     23 C23         -7.2490    -4.7840    62.8490 c6         1 YK2       0.095500
     24 C24        -10.3400     2.3840    52.8670 cc         1 YK2       0.658100
     25 C25         -6.1290    -2.6030    63.2160 c6         1 YK2       0.095500
     26 F01        -10.5700     6.9450    58.5560 f          1 YK2      -0.160000
     27 N01         -7.3220    -3.3060    62.6450 n          1 YK2      -0.408800
     28 N02         -8.8930     0.6850    62.5350 nb         1 YK2      -0.742000
     29 N03         -9.3220     2.5940    61.5380 nu         1 YK2      -0.893800
     30 N04         -5.5980    -4.5420    64.7470 n3         1 YK2      -0.717600
     31 N05         -9.6270     3.5300    59.4010 nb         1 YK2      -0.234000
     32 N06        -10.4680     1.7990    51.6190 nh         1 YK2      -0.728600
     33 N07         -9.8860     4.8180    61.4080 nb         1 YK2      -0.212000
     34 N08         -9.8960     3.6400    52.9880 nd         1 YK2      -0.645100
     35 O01         -8.2330    -3.5710    60.5550 o          1 YK2      -0.595100
     36 S01        -10.7570     1.4940    54.3590 ss         1 YK2      -0.026200
     37 H1          -8.1720    -1.2400    59.2110 ha         1 YK2       0.133000
     38 H2          -8.5250    -1.0900    63.5330 h4         1 YK2       0.025100
     39 H3         -10.2940    -0.2890    52.0000 h1         1 YK2       0.049033
     40 H4         -11.9690     0.3120    51.8900 h1         1 YK2       0.049033
     41 H5         -10.9980     0.1040    50.4180 h1         1 YK2       0.049033
     42 H6          -8.7950     1.1720    59.1850 ha         1 YK2       0.153000
     43 H7          -9.0660     2.8400    50.3990 h1         1 YK2       0.049033
     44 H8         -10.2840     1.9260    49.4850 h1         1 YK2       0.049033
     45 H9         -10.7390     3.4420    50.2910 h1         1 YK2       0.049033
     46 H10         -3.4990    -5.0270    67.4700 hc         1 YK2       0.038367
     47 H11         -3.0320    -4.7790    65.7750 hc         1 YK2       0.038367
     48 H12         -3.7710    -3.4530    66.7080 hc         1 YK2       0.038367
     49 H14         -5.1610    -6.1140    66.0920 h1         1 YK2       0.030700
     50 H15         -5.9160    -4.7080    66.8450 h1         1 YK2       0.030700
     51 H18         -7.6790    -4.9490    64.9690 h1         1 YK2       0.040200
     52 H19         -6.7390    -6.2960    64.3170 h1         1 YK2       0.040200
     53 H20        -10.4210     6.8200    61.2020 h4         1 YK2       0.043100
     54 H22        -10.6500     2.3290    57.2400 ha         1 YK2       0.134000
     55 H23         -9.1260     6.3580    56.6240 ha         1 YK2       0.125000
     56 H24         -6.5350    -2.7190    65.3470 h1         1 YK2       0.040200
     57 H25         -4.8240    -2.5510    64.9350 h1         1 YK2       0.040200
     58 H26         -9.1260     5.9660    54.1800 ha         1 YK2       0.133000
     59 H27         -8.2230    -5.2350    62.6100 h1         1 YK2       0.059200
     60 H28         -6.5150    -5.2010    62.1440 h1         1 YK2       0.059200
     61 H29         -5.2710    -2.7980    62.5580 h1         1 YK2       0.059200
     62 H30         -6.2730    -1.5160    63.2240 h1         1 YK2       0.059200
     63 H31         -9.3920     2.7810    62.5320 hn         1 YK2       0.529000
@<TRIPOS>BOND
     1     1     2 ar  
     2     1     3 1   
     3     1     4 ar  
     4     2     6 ar  
     5     2    37 1   
     6     3    27 1   
     7     3    35 2   
     8     4    28 ar  
     9     4    38 1   
    10     5    32 1   
    11     5    39 1   
    12     5    40 1   
    13     5    41 1   
    14     6     7 ar  
    15     6    42 1   
    16     7    28 ar  
    17     7    29 1   
    18     8    32 1   
    19     8    43 1   
    20     8    44 1   
    21     8    45 1   
    22     9    11 1   
    23     9    46 1   
    24     9    47 1   
    25     9    48 1   
    26    10    29 1   
    27    10    31 ar  
    28    10    33 ar  
    29    11    30 1   
    30    11    49 1   
    31    11    50 1   
    32    12    13 1   
    33    12    14 ar  
    34    12    31 ar  
    35    13    17 ar  
    36    13    20 ar  
    37    14    16 ar  
    38    14    26 1   
    39    15    23 1   
    40    15    30 1   
    41    15    51 1   
    42    15    52 1   
    43    16    33 ar  
    44    16    53 1   
    45    17    18 ar  
    46    17    54 1   
    47    18    19 ar  
    48    18    36 1   
    49    19    22 ar  
    50    19    34 1   
    51    20    22 ar  
    52    20    55 1   
    53    21    25 1   
    54    21    30 1   
    55    21    56 1   
    56    21    57 1   
    57    22    58 1   
    58    23    27 1   
    59    23    59 1   
    60    23    60 1   
    61    24    32 1   
    62    24    34 2   
    63    24    36 1   
    64    25    27 1   
    65    25    61 1   
    66    25    62 1   
    67    29    63 1   
@<TRIPOS>SUBSTRUCTURE
     1 YK2         1 TEMP              0 ****  ****    0 ROOT
