@<TRIPOS>MOLECULE
YK3
   67    70     1     0     0
SMALL
No Charge or Current Charge


@<TRIPOS>ATOM
      1 O3         130.0080   114.7670    94.5170 o          1 YK3      -0.484000
      2 C16        130.8840   114.7450    93.6630 c          1 YK3       0.614100
      3 O2         132.1850   115.1670    93.8310 os         1 YK3      -0.472100
      4 C17        132.6840   115.6940    95.0830 c3         1 YK3       0.205000
      5 C20        131.9160   116.9940    95.4400 c3         1 YK3      -0.106433
      6 C19        132.5880   114.6070    96.1840 c3         1 YK3      -0.106433
      7 C18        134.1650   116.0220    94.7920 c3         1 YK3      -0.106433
      8 C15        130.6360   114.3320    92.2150 c3         1 YK3      -0.115400
      9 C14        130.3650   115.5650    91.3190 c3         1 YK3       0.108200
     10 C22        130.2720   115.2440    89.8280 cc         1 YK3       0.382800
     11 N3         130.6290   114.1090    89.2380 nd         1 YK3      -0.335000
     12 N4         130.5220   114.2750    87.8680 nd         1 YK3      -0.348000
     13 C23        130.1320   115.5180    87.6250 cc         1 YK3       0.409800
     14 C24        129.8460   116.0760    86.2580 c3         1 YK3      -0.128400
     15 N2         129.8630   116.1080    88.8370 na         1 YK3      -0.254800
     16 C21        130.0180   117.4900    89.0360 cc         1 YK3      -0.125200
     17 C4         129.5240   118.0420    90.1960 cd         1 YK3      -0.211900
     18 C2         129.9000   119.4270    90.2730 cd         1 YK3      -0.059300
     19 C3         129.5220   120.3140    91.4370 c3         1 YK3      -0.034800
     20 S1         130.9280   118.5780    88.0100 ss         1 YK3       0.254000
     21 C1         130.6340   119.8620    89.1820 cc         1 YK3      -0.205300
     22 C          131.1750   121.2470    88.9340 c3         1 YK3      -0.022800
     23 N1         129.1360   116.2370    91.7820 n2         1 YK3      -0.570900
     24 C5         128.7210   117.3280    91.2080 cf         1 YK3       0.551500
     25 C6         127.3330   117.7820    91.4910 ca         1 YK3      -0.128900
     26 C13        126.6340   118.5760    90.5540 ca         1 YK3      -0.065500
     27 C12        125.3120   118.9840    90.8050 ca         1 YK3      -0.114500
     28 C9         124.6590   118.6080    91.9890 ca         1 YK3       0.246000
     29 C8         125.3330   117.7860    92.9070 ca         1 YK3      -0.114500
     30 C7         126.6540   117.3740    92.6620 ca         1 YK3      -0.065500
     31 N          123.3460   119.0200    92.2030 nu         1 YK3      -0.884100
     32 S          122.8440   120.0930    93.3700 s6         1 YK3       1.154100
     33 O          123.7890   121.2090    93.3040 o          1 YK3      -0.536000
     34 O1         121.4250   120.3150    93.0860 o          1 YK3      -0.536000
     35 C10        123.0170   119.2700    94.9650 c3         1 YK3      -0.296400
     36 C11        122.1880   117.9680    95.0910 c3         1 YK3      -0.065100
     37 H1         132.4300   117.5310    96.2460 hc         1 YK3       0.047811
     38 H2         131.8570   117.6620    94.5720 hc         1 YK3       0.047811
     39 H3         130.8980   116.7870    95.7870 hc         1 YK3       0.047811
     40 H4         133.1660   114.9070    97.0660 hc         1 YK3       0.047811
     41 H5         131.5560   114.4460    96.5140 hc         1 YK3       0.047811
     42 H6         132.9910   113.6530    95.8250 hc         1 YK3       0.047811
     43 H7         134.6550   116.4370    95.6800 hc         1 YK3       0.047811
     44 H8         134.7120   115.1190    94.4920 hc         1 YK3       0.047811
     45 H9         134.2500   116.7570    93.9820 hc         1 YK3       0.047811
     46 H10        129.7900   113.6380    92.1640 hc         1 YK3       0.093200
     47 H11        131.5530   113.8650    91.8380 hc         1 YK3       0.093200
     48 H12        131.2210   116.2450    91.4350 h1         1 YK3       0.081700
     49 H13        129.4790   115.2890    85.5890 hc         1 YK3       0.064700
     50 H14        129.0800   116.8580    86.3030 hc         1 YK3       0.064700
     51 H15        130.7530   116.4990    85.8130 hc         1 YK3       0.064700
     52 H16        128.5640   120.8140    91.2520 hc         1 YK3       0.052700
     53 H17        129.4300   119.7430    92.3670 hc         1 YK3       0.052700
     54 H18        130.2760   121.0910    91.6110 hc         1 YK3       0.052700
     55 H19        131.5850   121.3410    87.9210 hc         1 YK3       0.052700
     56 H20        130.3870   122.0010    89.0460 hc         1 YK3       0.052700
     57 H21        131.9760   121.4860    89.6430 hc         1 YK3       0.052700
     58 H22        127.1080   118.8810    89.6240 ha         1 YK3       0.132000
     59 H23        124.7980   119.6000    90.0720 ha         1 YK3       0.125500
     60 H24        124.8330   117.4420    93.8050 ha         1 YK3       0.125500
     61 H25        127.1490   116.7370    93.3940 ha         1 YK3       0.132000
     62 H26        122.8840   119.3910    91.3840 hn         1 YK3       0.494000
     63 H27        124.0850   119.0800    95.1060 h1         1 YK3       0.098700
     64 H28        122.6890   120.0010    95.7110 h1         1 YK3       0.098700
     65 H29        122.3440   117.5100    96.0750 hc         1 YK3       0.052033
     66 H30        121.1160   118.1740    94.9800 hc         1 YK3       0.052033
     67 H31        122.4750   117.2360    94.3260 hc         1 YK3       0.052033
@<TRIPOS>BOND
     1     1     2 2   
     2     2     3 1   
     3     2     8 1   
     4     3     4 1   
     5     4     5 1   
     6     4     6 1   
     7     4     7 1   
     8     5    37 1   
     9     5    38 1   
    10     5    39 1   
    11     6    40 1   
    12     6    41 1   
    13     6    42 1   
    14     7    43 1   
    15     7    44 1   
    16     7    45 1   
    17     8     9 1   
    18     8    46 1   
    19     8    47 1   
    20     9    10 1   
    21     9    23 1   
    22     9    48 1   
    23    10    11 2   
    24    10    15 1   
    25    11    12 1   
    26    12    13 2   
    27    13    14 1   
    28    13    15 1   
    29    14    49 1   
    30    14    50 1   
    31    14    51 1   
    32    15    16 1   
    33    16    17 2   
    34    16    20 1   
    35    17    18 1   
    36    17    24 1   
    37    18    19 1   
    38    18    21 2   
    39    19    52 1   
    40    19    53 1   
    41    19    54 1   
    42    20    21 1   
    43    21    22 1   
    44    22    55 1   
    45    22    56 1   
    46    22    57 1   
    47    23    24 2   
    48    24    25 1   
    49    25    26 ar  
    50    25    30 ar  
    51    26    27 ar  
    52    26    58 1   
    53    27    28 ar  
    54    27    59 1   
    55    28    29 ar  
    56    28    31 1   
    57    29    30 ar  
    58    29    60 1   
    59    30    61 1   
    60    31    32 1   
    61    31    62 1   
    62    32    33 2   
    63    32    34 2   
    64    32    35 1   
    65    35    36 1   
    66    35    63 1   
    67    35    64 1   
    68    36    65 1   
    69    36    66 1   
    70    36    67 1   
@<TRIPOS>SUBSTRUCTURE
     1 YK3         1 TEMP              0 ****  ****    0 ROOT
