@<TRIPOS>MOLECULE
YK3
   67    70     1     0     0
SMALL
abcg2


@<TRIPOS>ATOM
      1 O3         130.1600   113.6460    93.9390 o          1 YK3      -0.484000
      2 C16        130.8590   114.3310    93.2360 c          1 YK3       0.614100
      3 O2         131.5940   115.3520    93.6420 os         1 YK3      -0.472100
      4 C17        131.5960   115.8520    95.0120 c3         1 YK3       0.205000
      5 C20        130.2170   116.3750    95.3900 c3         1 YK3      -0.106433
      6 C19        132.0920   114.7900    95.9850 c3         1 YK3      -0.106433
      7 C18        132.5890   117.0050    94.9550 c3         1 YK3      -0.106433
      8 C15        131.0190   114.1120    91.7500 c3         1 YK3      -0.115400
      9 C14        130.6750   115.3730    90.9660 c3         1 YK3       0.108200
     10 C22        130.6280   115.1020    89.5010 cc         1 YK3       0.382800
     11 N3         130.6820   113.9780    88.8630 nd         1 YK3      -0.335000
     12 N4         130.5390   114.2440    87.5370 nd         1 YK3      -0.348000
     13 C23        130.3920   115.5270    87.3840 cc         1 YK3       0.409800
     14 C24        130.1860   116.2360    86.1000 c3         1 YK3      -0.128400
     15 N2         130.4420   116.1260    88.6140 na         1 YK3      -0.254800
     16 C21        130.3380   117.4590    88.9900 cc         1 YK3      -0.125200
     17 C4         129.7190   117.9020    90.1290 cd         1 YK3      -0.211900
     18 C2         129.8540   119.3200    90.2990 cd         1 YK3      -0.059300
     19 C3         129.3430   120.0920    91.4750 c3         1 YK3      -0.034800
     20 S1         131.0650   118.7360    88.1100 ss         1 YK3       0.254000
     21 C1         130.5460   119.8960    89.2740 cc         1 YK3      -0.205300
     22 C          130.8730   121.3410    89.0850 c3         1 YK3      -0.022800
     23 N1         129.3620   115.8430    91.3800 n2         1 YK3      -0.570900
     24 C5         128.9660   116.9960    91.0130 cf         1 YK3       0.551500
     25 C6         127.6230   117.4400    91.4510 ca         1 YK3      -0.128900
     26 C13        126.8160   118.1840    90.5920 ca         1 YK3      -0.065500
     27 C12        125.5530   118.5870    90.9860 ca         1 YK3      -0.114500
     28 C9         125.0780   118.2490    92.2470 ca         1 YK3       0.246000
     29 C8         125.8710   117.4930    93.1040 ca         1 YK3      -0.114500
     30 C7         127.1340   117.0900    92.7070 ca         1 YK3      -0.065500
     31 N          123.7820   118.6490    92.6700 nu         1 YK3      -0.884100
     32 S          123.6180   120.1430    93.4150 s6         1 YK3       1.154100
     33 O          124.5950   121.0920    92.9000 o          1 YK3      -0.536000
     34 O1         122.2010   120.4620    93.3180 o          1 YK3      -0.536000
     35 C10        124.0410   119.7920    95.1140 c3         1 YK3      -0.296400
     36 C11        123.1120   118.7940    95.7730 c3         1 YK3      -0.065100
     37 H1         130.2830   116.8880    96.3500 hc         1 YK3       0.047811
     38 H2         129.8580   117.0970    94.6540 hc         1 YK3       0.047811
     39 H3         129.4800   115.5810    95.4910 hc         1 YK3       0.047811
     40 H4         132.2550   115.2520    96.9590 hc         1 YK3       0.047811
     41 H5         131.3810   113.9780    96.1170 hc         1 YK3       0.047811
     42 H6         133.0450   114.3720    95.6570 hc         1 YK3       0.047811
     43 H7         132.6670   117.4720    95.9360 hc         1 YK3       0.047811
     44 H8         133.5830   116.6580    94.6680 hc         1 YK3       0.047811
     45 H9         132.2710   117.7700    94.2450 hc         1 YK3       0.047811
     46 H10        130.3640   113.2930    91.4540 hc         1 YK3       0.093200
     47 H11        132.0470   113.8120    91.5350 hc         1 YK3       0.093200
     48 H12        131.4380   116.1430    91.1460 h1         1 YK3       0.081700
     49 H13        130.0150   115.5010    85.3170 hc         1 YK3       0.064700
     50 H14        129.3220   116.9000    86.1440 hc         1 YK3       0.064700
     51 H15        131.0550   116.8300    85.8180 hc         1 YK3       0.064700
     52 H16        128.3230   120.4480    91.3180 hc         1 YK3       0.052700
     53 H17        129.3410   119.4870    92.3800 hc         1 YK3       0.052700
     54 H18        129.9670   120.9650    91.6670 hc         1 YK3       0.052700
     55 H19        131.4740   121.5100    88.1940 hc         1 YK3       0.052700
     56 H20        129.9640   121.9360    88.9910 hc         1 YK3       0.052700
     57 H21        131.4330   121.7260    89.9380 hc         1 YK3       0.052700
     58 H22        127.1740   118.4520    89.6050 ha         1 YK3       0.132000
     59 H23        124.9330   119.1640    90.3110 ha         1 YK3       0.125500
     60 H24        125.4910   117.2100    94.0780 ha         1 YK3       0.125500
     61 H25        127.7470   116.5020    93.3780 ha         1 YK3       0.132000
     62 H26        123.0630   118.5480    91.9580 hn         1 YK3       0.494000
     63 H27        125.0800   119.4570    95.1170 h1         1 YK3       0.098700
     64 H28        124.0100   120.7660    95.6090 h1         1 YK3       0.098700
     65 H29        123.4130   118.6660    96.8120 hc         1 YK3       0.052033
     66 H30        122.0800   119.1410    95.7660 hc         1 YK3       0.052033
     67 H31        123.1590   117.8210    95.2880 hc         1 YK3       0.052033
@<TRIPOS>BOND
     1     1     2 2   
     2     2     3 1   
     3     2     8 1   
     4     3     4 1   
     5     4     5 1   
     6     4     6 1   
     7     4     7 1   
     8     5    37 1   
     9     5    38 1   
    10     5    39 1   
    11     6    40 1   
    12     6    41 1   
    13     6    42 1   
    14     7    43 1   
    15     7    44 1   
    16     7    45 1   
    17     8     9 1   
    18     8    46 1   
    19     8    47 1   
    20     9    10 1   
    21     9    23 1   
    22     9    48 1   
    23    10    11 2   
    24    10    15 1   
    25    11    12 1   
    26    12    13 2   
    27    13    14 1   
    28    13    15 1   
    29    14    49 1   
    30    14    50 1   
    31    14    51 1   
    32    15    16 1   
    33    16    17 2   
    34    16    20 1   
    35    17    18 1   
    36    17    24 1   
    37    18    19 1   
    38    18    21 2   
    39    19    52 1   
    40    19    53 1   
    41    19    54 1   
    42    20    21 1   
    43    21    22 1   
    44    22    55 1   
    45    22    56 1   
    46    22    57 1   
    47    23    24 2   
    48    24    25 1   
    49    25    26 ar  
    50    25    30 ar  
    51    26    27 ar  
    52    26    58 1   
    53    27    28 ar  
    54    27    59 1   
    55    28    29 ar  
    56    28    31 1   
    57    29    30 ar  
    58    29    60 1   
    59    30    61 1   
    60    31    32 1   
    61    31    62 1   
    62    32    33 2   
    63    32    34 2   
    64    32    35 1   
    65    35    36 1   
    66    35    63 1   
    67    35    64 1   
    68    36    65 1   
    69    36    66 1   
    70    36    67 1   
@<TRIPOS>SUBSTRUCTURE
     1 YK3         1 TEMP              0 ****  ****    0 ROOT
