@<TRIPOS>MOLECULE
YK4
   54    57     1     0     0
SMALL
No Charge or Current Charge


@<TRIPOS>ATOM
      1 C2           7.9660     4.2460     4.5360 ca         1 YK4       0.440900
      2 C4           8.5620     3.5490     2.4500 ca         1 YK4       0.471900
      3 C5           8.0100     4.7120     1.8900 ca         1 YK4      -0.398600
      4 C6           7.4520     5.6320     2.8010 ca         1 YK4       0.205900
      5 C7           7.9950     4.9760     0.4180 c          1 YK4       0.652700
      6 N10          9.1260     2.5660     1.6590 nu         1 YK4      -0.945900
      7 C11          9.7200     1.3160     1.8920 ca         1 YK4       0.321000
      8 C12          9.6130     0.3020     0.9110 ca         1 YK4      -0.036900
      9 C15         11.0430    -0.2150     3.2740 ca         1 YK4      -0.092000
     10 C16         10.4550     1.0460     3.0670 ca         1 YK4      -0.102000
     11 C19          8.3800     3.0160     6.7690 ca         1 YK4       0.282000
     12 C21          9.1390     2.3230     8.9950 ca         1 YK4      -0.172000
     13 C23          8.9060     0.6650     7.2240 ca         1 YK4      -0.082300
     14 C24          8.4680     1.6740     6.3470 ca         1 YK4      -0.101000
     15 C27         10.1100    -1.4160     8.8120 c6         1 YK4       0.166800
     16 C31          8.8850     5.0820     9.8680 c3         1 YK4       0.155900
     17 N1           7.4330     5.4030     4.1260 nb         1 YK4      -0.281000
     18 N3           8.5340     3.3160     3.7650 nb         1 YK4      -0.329000
     19 O8           8.3830     4.1700    -0.4090 o          1 YK4      -0.649100
     20 N9           7.5110     6.1580    -0.0030 nt         1 YK4      -0.597000
     21 C13         10.2000    -0.9590     1.1190 ca         1 YK4      -0.078000
     22 C14         10.9110    -1.2190     2.3020 ca         1 YK4      -0.122000
     23 Br17         8.6470     0.6030    -0.7240 br         1 YK4      -0.082100
     24 N18          7.9560     4.0470     5.9070 nu         1 YK4      -0.907900
     25 C20          8.7010     3.3380     8.1140 ca         1 YK4       0.093100
     26 C22          9.2530     0.9940     8.5500 ca         1 YK4      -0.052300
     27 C25          9.0250    -0.7780     6.7150 c6         1 YK4       0.212100
     28 N26          9.1030    -1.8010     7.7920 n3         1 YK4      -0.710600
     29 C28          9.7140    -0.0970     9.5190 c6         1 YK4      -0.026100
     30 C29          9.3220    -3.1610     7.2560 c3         1 YK4       0.153100
     31 O30          8.5770     4.6590     8.5270 os         1 YK4      -0.362100
     32 H1           7.0010     6.5690     2.4790 h4         1 YK4       0.012100
     33 H2           8.9500     2.7690     0.6670 hn         1 YK4       0.561000
     34 H3          11.6070    -0.4090     4.1840 ha         1 YK4       0.119000
     35 H4          10.5940     1.8140     3.8190 ha         1 YK4       0.129000
     36 H5           9.3930     2.5480    10.0270 ha         1 YK4       0.116000
     37 H6           8.1860     1.3970     5.3380 ha         1 YK4       0.156000
     38 H7          10.2150    -2.2040     9.5720 h1         1 YK4       0.032700
     39 H8          11.0950    -1.2880     8.3390 h1         1 YK4       0.032700
     40 H9           8.7180     6.1610     9.9740 h1         1 YK4       0.041367
     41 H10          8.2460     4.5670    10.5970 h1         1 YK4       0.041367
     42 H11          9.9350     4.8760    10.1110 h1         1 YK4       0.041367
     43 H12          7.4890     6.3520    -0.9920 hn         1 YK4       0.315000
     44 H13          7.1840     6.8400     0.6620 hn         1 YK4       0.315000
     45 H14         10.1040    -1.7350     0.3630 ha         1 YK4       0.130000
     46 H15         11.3660    -2.1940     2.4610 ha         1 YK4       0.117000
     47 H16          7.7360     4.9040     6.4160 hn         1 YK4       0.530000
     48 H17          8.1660    -0.9920     6.0620 h1         1 YK4       0.042700
     49 H18          9.9230    -0.8340     6.0820 h1         1 YK4       0.042700
     50 H20         10.5610     0.2610    10.1190 hc         1 YK4       0.053700
     51 H21          8.9000    -0.3050    10.2270 hc         1 YK4       0.053700
     52 H22          9.3130    -3.9030     8.0660 h1         1 YK4       0.030367
     53 H23          8.5310    -3.4290     6.5440 h1         1 YK4       0.030367
     54 H24         10.2890    -3.2280     6.7390 h1         1 YK4       0.030367
@<TRIPOS>BOND
     1     1    17 ar  
     2     1    18 ar  
     3     1    24 1   
     4     2     3 ar  
     5     2     6 1   
     6     2    18 ar  
     7     3     4 ar  
     8     3     5 1   
     9     4    17 ar  
    10     4    32 1   
    11     5    19 2   
    12     5    20 1   
    13     6     7 1   
    14     6    33 1   
    15     7     8 ar  
    16     7    10 ar  
    17     8    21 ar  
    18     8    23 1   
    19     9    10 ar  
    20     9    22 ar  
    21     9    34 1   
    22    10    35 1   
    23    11    14 ar  
    24    11    24 1   
    25    11    25 ar  
    26    12    25 ar  
    27    12    26 ar  
    28    12    36 1   
    29    13    14 ar  
    30    13    26 ar  
    31    13    27 1   
    32    14    37 1   
    33    15    28 1   
    34    15    29 1   
    35    15    38 1   
    36    15    39 1   
    37    16    31 1   
    38    16    40 1   
    39    16    41 1   
    40    16    42 1   
    41    20    43 1   
    42    20    44 1   
    43    21    22 ar  
    44    21    45 1   
    45    22    46 1   
    46    24    47 1   
    47    25    31 1   
    48    26    29 1   
    49    27    28 1   
    50    27    48 1   
    51    27    49 1   
    52    28    30 1   
    53    29    50 1   
    54    29    51 1   
    55    30    52 1   
    56    30    53 1   
    57    30    54 1   
@<TRIPOS>SUBSTRUCTURE
     1 YK4         1 TEMP              0 ****  ****    0 ROOT
