@<TRIPOS>MOLECULE
YK4
   54    57     1     0     0
SMALL
abcg2


@<TRIPOS>ATOM
      1 C2           8.1950     4.2940     4.5250 ca         1 YK4       0.440900
      2 C4           8.5300     3.4930     2.4200 ca         1 YK4       0.471900
      3 C5           8.0950     4.7300     1.8710 ca         1 YK4      -0.398600
      4 C6           7.7040     5.6710     2.8170 ca         1 YK4       0.205900
      5 C7           8.0330     4.9640     0.4150 c          1 YK4       0.652700
      6 N10          8.9030     2.4660     1.6340 nu         1 YK4      -0.945900
      7 C11          9.4620     1.2680     2.1020 ca         1 YK4       0.321000
      8 C12          8.8810     0.0360     1.8030 ca         1 YK4      -0.036900
      9 C15         11.2170     0.0950     3.2790 ca         1 YK4      -0.092000
     10 C16         10.6430     1.2750     2.8440 ca         1 YK4      -0.102000
     11 C19          8.5740     3.0320     6.6490 ca         1 YK4       0.282000
     12 C21          8.9460     2.2060     8.8930 ca         1 YK4      -0.172000
     13 C23          9.1110     0.6990     7.0350 ca         1 YK4      -0.082300
     14 C24          8.8060     1.7510     6.1730 ca         1 YK4      -0.101000
     15 C27         10.1180    -1.3860     8.6020 c6         1 YK4       0.166800
     16 C31          8.4840     4.8280     9.8190 c3         1 YK4       0.155900
     17 N1           7.7420     5.4930     4.1210 nb         1 YK4      -0.281000
     18 N3           8.5760     3.3070     3.7340 nb         1 YK4      -0.329000
     19 O8           8.1330     4.0350    -0.3900 o          1 YK4      -0.649100
     20 N9           7.8460     6.2250    -0.0050 nt         1 YK4      -0.597000
     21 C13          9.4610    -1.1560     2.2180 ca         1 YK4      -0.078000
     22 C14         10.6300    -1.1240     2.9600 ca         1 YK4      -0.122000
     23 BR17         7.2660    -0.0300     0.8290 br         1 YK4      -0.082100
     24 N18          8.2350     4.1370     5.8670 nu         1 YK4      -0.907900
     25 C20          8.6520     3.2550     8.0420 ca         1 YK4       0.093100
     26 C22          9.1790     0.9190     8.4010 ca         1 YK4      -0.052300
     27 C25          9.4000    -0.6560     6.4490 c6         1 YK4       0.212100
     28 N26          9.3250    -1.7130     7.4330 n3         1 YK4      -0.710600
     29 C28          9.4900    -0.2140     9.3380 c6         1 YK4      -0.026100
     30 C29          9.7050    -2.9790     6.8500 c3         1 YK4       0.153100
     31 O30          8.4220     4.5240     8.4410 os         1 YK4      -0.362100
     32 H1           7.3180     6.6360     2.5040 h4         1 YK4       0.012100
     33 H2           8.7370     2.6040     0.6400 hn         1 YK4       0.561000
     34 H3          12.1300     0.1250     3.8580 ha         1 YK4       0.119000
     35 H4          11.1130     2.2230     3.0690 ha         1 YK4       0.129000
     36 H5           9.0030     2.3680     9.9620 ha         1 YK4       0.116000
     37 H6           8.7620     1.5650     5.1110 ha         1 YK4       0.156000
     38 H7          10.1530    -2.2570     9.2580 h1         1 YK4       0.032700
     39 H8          11.1610    -1.1460     8.3320 h1         1 YK4       0.032700
     40 H9           8.2870     5.8930     9.9100 h1         1 YK4       0.041367
     41 H10          7.7320     4.2780    10.3910 h1         1 YK4       0.041367
     42 H11          9.4710     4.6140    10.2360 h1         1 YK4       0.041367
     43 H12          7.8220     6.4070    -0.9960 hn         1 YK4       0.315000
     44 H13          7.9060     7.0270     0.5970 hn         1 YK4       0.315000
     45 H14          9.0010    -2.1030     1.9730 ha         1 YK4       0.130000
     46 H15         11.0770    -2.0510     3.2910 ha         1 YK4       0.117000
     47 H16          7.9520     4.9620     6.3760 hn         1 YK4       0.530000
     48 H17          8.6910    -0.8700     5.6440 h1         1 YK4       0.042700
     49 H18         10.3970    -0.6250     5.9710 h1         1 YK4       0.042700
     50 H20         10.1570     0.1260    10.1340 hc         1 YK4       0.053700
     51 H21          8.5710    -0.5480     9.8290 hc         1 YK4       0.053700
     52 H22          9.5960    -3.7790     7.5830 h1         1 YK4       0.030367
     53 H23          9.0560    -3.2100     6.0030 h1         1 YK4       0.030367
     54 H24         10.7440    -2.9950     6.4840 h1         1 YK4       0.030367
@<TRIPOS>BOND
     1     1    17 ar  
     2     1    18 ar  
     3     1    24 1   
     4     2     3 ar  
     5     2     6 1   
     6     2    18 ar  
     7     3     4 ar  
     8     3     5 1   
     9     4    17 ar  
    10     4    32 1   
    11     5    19 2   
    12     5    20 1   
    13     6     7 1   
    14     6    33 1   
    15     7     8 ar  
    16     7    10 ar  
    17     8    21 ar  
    18     8    23 1   
    19     9    10 ar  
    20     9    22 ar  
    21     9    34 1   
    22    10    35 1   
    23    11    14 ar  
    24    11    24 1   
    25    11    25 ar  
    26    12    25 ar  
    27    12    26 ar  
    28    12    36 1   
    29    13    14 ar  
    30    13    26 ar  
    31    13    27 1   
    32    14    37 1   
    33    15    28 1   
    34    15    29 1   
    35    15    38 1   
    36    15    39 1   
    37    16    31 1   
    38    16    40 1   
    39    16    41 1   
    40    16    42 1   
    41    20    43 1   
    42    20    44 1   
    43    21    22 ar  
    44    21    45 1   
    45    22    46 1   
    46    24    47 1   
    47    25    31 1   
    48    26    29 1   
    49    27    28 1   
    50    27    48 1   
    51    27    49 1   
    52    28    30 1   
    53    29    50 1   
    54    29    51 1   
    55    30    52 1   
    56    30    53 1   
    57    30    54 1   
@<TRIPOS>SUBSTRUCTURE
     1 YK4         1 TEMP              0 ****  ****    0 ROOT
