@<TRIPOS>MOLECULE
YK7
   54    57     1     0     0
SMALL
No Charge or Current Charge


@<TRIPOS>ATOM
      1 C2          15.0130     2.3140   -39.2520 ca         1 YK7       0.441900
      2 C4          14.3920     1.5680   -37.1900 ca         1 YK7       0.469900
      3 C5          14.9700     2.7010   -36.5940 ca         1 YK7      -0.402600
      4 C6          15.5540     3.6340   -37.4740 ca         1 YK7       0.203900
      5 C7          14.9860     2.9210   -35.1140 c          1 YK7       0.652700
      6 N10         13.8000     0.5790   -36.4260 nu         1 YK7      -0.930900
      7 C11         13.1670    -0.6410   -36.6900 ca         1 YK7       0.303000
      8 C12         12.4570    -0.8900   -37.8830 ca         1 YK7      -0.134500
      9 C15         12.6000    -2.8900   -35.9200 ca         1 YK7      -0.094500
     10 C16         13.2200    -1.6460   -35.7070 ca         1 YK7      -0.134500
     11 C18         14.5810     1.1610   -41.5260 ca         1 YK7       0.257000
     12 C19         14.2790     1.5270   -42.8640 ca         1 YK7       0.117100
     13 C21         13.6700    -0.7880   -43.3710 ca         1 YK7      -0.034300
     14 C23         14.4530    -0.1920   -41.1440 ca         1 YK7      -0.064000
     15 C24         13.8340    -2.6150   -41.5860 c6         1 YK7       0.211100
     16 C27         12.7540    -3.1650   -43.7100 c6         1 YK7       0.166800
     17 C31         14.1550     3.3230   -44.5700 c3         1 YK7       0.149900
     18 N1          15.5730     3.4440   -38.8050 nb         1 YK7      -0.281000
     19 N3          14.4200     1.3740   -38.5120 nb         1 YK7      -0.327000
     20 O8          14.5760     2.1000   -34.3110 o          1 YK7      -0.652100
     21 N9          15.4950     4.0780   -34.6570 nt         1 YK7      -0.595000
     22 C13         11.8350    -2.1320   -38.0990 ca         1 YK7      -0.094500
     23 C14         11.9100    -3.1340   -37.1180 ca         1 YK7      -0.135000
     24 N17         15.0240     2.1570   -40.6290 nu         1 YK7      -0.918900
     25 C20         13.8230     0.5490   -43.7780 ca         1 YK7      -0.187000
     26 C22         13.9960    -1.1630   -42.0530 ca         1 YK7      -0.097300
     27 N25         13.7420    -3.6040   -42.6930 n3         1 YK7      -0.711600
     28 C28         13.1890    -1.8390   -44.3750 c6         1 YK7      -0.030100
     29 C29         13.4850    -4.9730   -42.1990 c3         1 YK7       0.152100
     30 O30         14.4410     2.8550   -43.2400 os         1 YK7      -0.347100
     31 H1          16.0270     4.5490   -37.1230 h4         1 YK7       0.012100
     32 H2          13.9570     0.7690   -35.4300 hn         1 YK7       0.546000
     33 H3          12.3630    -0.1200   -38.6420 ha         1 YK7       0.131500
     34 H4          12.6540    -3.6630   -35.1560 ha         1 YK7       0.111500
     35 H5          13.7530    -1.4670   -34.7770 ha         1 YK7       0.131500
     36 H6          14.7180    -0.5060   -40.1410 ha         1 YK7       0.135000
     37 H7          12.9290    -2.6650   -40.9620 h1         1 YK7       0.046200
     38 H8          14.6810    -2.8690   -40.9310 h1         1 YK7       0.046200
     39 H9          11.7680    -3.0260   -43.2410 h1         1 YK7       0.033200
     40 H10         12.6350    -3.9300   -44.4920 h1         1 YK7       0.033200
     41 H11         14.3510     4.4000   -44.6440 h1         1 YK7       0.041700
     42 H12         14.7870     2.8110   -45.3080 h1         1 YK7       0.041700
     43 H13         13.1020     3.1510   -44.8270 h1         1 YK7       0.041700
     44 H14         15.5190     4.2420   -33.6620 hn         1 YK7       0.314000
     45 H15         15.8410     4.7710   -35.3010 hn         1 YK7       0.314000
     46 H16         11.2880    -2.3140   -39.0220 ha         1 YK7       0.111500
     47 H17         11.4290    -4.0960   -37.2840 ha         1 YK7       0.111000
     48 H18         15.2750     3.0220   -41.1080 hn         1 YK7       0.525000
     49 H19         13.5830     0.8090   -44.8040 ha         1 YK7       0.117000
     50 H21         14.0030    -2.0470   -45.0830 hc         1 YK7       0.055700
     51 H22         12.3570    -1.4420   -44.9710 hc         1 YK7       0.055700
     52 H23         14.2630    -5.2810   -41.4880 h1         1 YK7       0.031367
     53 H24         12.5120    -5.0320   -41.6920 h1         1 YK7       0.031367
     54 H25         13.4840    -5.6910   -43.0300 h1         1 YK7       0.031367
@<TRIPOS>BOND
     1     1    18 ar  
     2     1    19 ar  
     3     1    24 1   
     4     2     3 ar  
     5     2     6 1   
     6     2    19 ar  
     7     3     4 ar  
     8     3     5 1   
     9     4    18 ar  
    10     4    31 1   
    11     5    20 2   
    12     5    21 1   
    13     6     7 1   
    14     6    32 1   
    15     7     8 ar  
    16     7    10 ar  
    17     8    22 ar  
    18     8    33 1   
    19     9    10 ar  
    20     9    23 ar  
    21     9    34 1   
    22    10    35 1   
    23    11    12 ar  
    24    11    14 ar  
    25    11    24 1   
    26    12    25 ar  
    27    12    30 1   
    28    13    25 ar  
    29    13    26 ar  
    30    13    28 1   
    31    14    26 ar  
    32    14    36 1   
    33    15    26 1   
    34    15    27 1   
    35    15    37 1   
    36    15    38 1   
    37    16    27 1   
    38    16    28 1   
    39    16    39 1   
    40    16    40 1   
    41    17    30 1   
    42    17    41 1   
    43    17    42 1   
    44    17    43 1   
    45    21    44 1   
    46    21    45 1   
    47    22    23 ar  
    48    22    46 1   
    49    23    47 1   
    50    24    48 1   
    51    25    49 1   
    52    27    29 1   
    53    28    50 1   
    54    28    51 1   
    55    29    52 1   
    56    29    53 1   
    57    29    54 1   
@<TRIPOS>SUBSTRUCTURE
     1 YK7         1 TEMP              0 ****  ****    0 ROOT
