@<TRIPOS>MOLECULE
YK7
   54    57     1     0     0
SMALL
abcg2


@<TRIPOS>ATOM
      1 C2          15.3800     2.2030   -39.3460 ca         1 YK7       0.441900
      2 C4          14.4710     1.5100   -37.3760 ca         1 YK7       0.469900
      3 C5          15.1060     2.5960   -36.7010 ca         1 YK7      -0.402600
      4 C6          15.8980     3.3940   -37.5160 ca         1 YK7       0.203900
      5 C7          14.9680     2.8220   -35.2490 c          1 YK7       0.652700
      6 N10         13.7160     0.6270   -36.6930 nu         1 YK7      -0.930900
      7 C11         13.0220    -0.4950   -37.1570 ca         1 YK7       0.303000
      8 C12         12.4930    -0.6210   -38.4440 ca         1 YK7      -0.134500
      9 C15         12.0980    -2.6600   -36.5940 ca         1 YK7      -0.094500
     10 C16         12.8100    -1.5260   -36.2380 ca         1 YK7      -0.134500
     11 C18         14.8890     1.0670   -41.4690 ca         1 YK7       0.257000
     12 C19         14.1990     1.4650   -42.6270 ca         1 YK7       0.117100
     13 C21         13.6040    -0.8450   -43.0510 ca         1 YK7      -0.034300
     14 C23         14.9450    -0.2770   -41.1470 ca         1 YK7      -0.064000
     15 C24         14.3390    -2.6790   -41.4780 c6         1 YK7       0.211100
     16 C27         12.6810    -3.1630   -43.1190 c6         1 YK7       0.166800
     17 C31         13.5680     3.2400   -44.0690 c3         1 YK7       0.149900
     18 N1          16.0570     3.2310   -38.8150 nb         1 YK7      -0.281000
     19 N3          14.6150     1.3510   -38.6830 nb         1 YK7      -0.327000
     20 O8          14.5120     1.9550   -34.5000 o          1 YK7      -0.652100
     21 N9          15.3720     4.0090   -34.7640 nt         1 YK7      -0.595000
     22 C13         11.7870    -1.7660   -38.7900 ca         1 YK7      -0.094500
     23 C14         11.5870    -2.7920   -37.8790 ca         1 YK7      -0.135000
     24 N17         15.5180     2.0450   -40.6820 nu         1 YK7      -0.918900
     25 C20         13.5740     0.5040   -43.4070 ca         1 YK7      -0.187000
     26 C22         14.3010    -1.2400   -41.9170 ca         1 YK7      -0.097300
     27 N25         13.9320    -3.5910   -42.5250 n3         1 YK7      -0.711600
     28 C28         12.8920    -1.8700   -43.8890 c6         1 YK7      -0.030100
     29 C29         13.8640    -4.9440   -42.0240 c3         1 YK7       0.152100
     30 O30         14.1990     2.7860   -42.8890 os         1 YK7      -0.347100
     31 H1          16.4640     4.2160   -37.0900 h4         1 YK7       0.012100
     32 H2          13.7720     0.7490   -35.6850 hn         1 YK7       0.546000
     33 H3          12.6320     0.1590   -39.1740 ha         1 YK7       0.131500
     34 H4          11.9510    -3.4450   -35.8640 ha         1 YK7       0.111500
     35 H5          13.2110    -1.4380   -35.2350 ha         1 YK7       0.131500
     36 H6          15.4950    -0.5830   -40.2670 ha         1 YK7       0.135000
     37 H7          13.6980    -2.7850   -40.5840 h1         1 YK7       0.046200
     38 H8          15.3510    -2.9380   -41.1550 h1         1 YK7       0.046200
     39 H9          11.8940    -3.0230   -42.3570 h1         1 YK7       0.033200
     40 H10         12.3270    -3.9400   -43.7990 h1         1 YK7       0.033200
     41 H11         13.7050     4.3180   -44.0970 h1         1 YK7       0.041700
     42 H12         14.0160     2.8040   -44.9650 h1         1 YK7       0.041700
     43 H13         12.4970     3.0210   -44.0690 h1         1 YK7       0.041700
     44 H14         15.2550     4.1900   -33.7810 hn         1 YK7       0.314000
     45 H15         15.5640     4.8060   -35.3450 hn         1 YK7       0.314000
     46 H16         11.3890    -1.8480   -39.7940 ha         1 YK7       0.111500
     47 H17         11.0360    -3.6790   -38.1630 ha         1 YK7       0.111000
     48 H18         16.0200     2.7840   -41.1510 hn         1 YK7       0.525000
     49 H19         13.0290     0.7880   -44.2990 ha         1 YK7       0.117000
     50 H21         13.4760    -2.0800   -44.7900 hc         1 YK7       0.055700
     51 H22         11.9300    -1.4780   -44.2280 hc         1 YK7       0.055700
     52 H23         14.8320    -5.2390   -41.6140 h1         1 YK7       0.031367
     53 H24         13.1120    -5.0750   -41.2300 h1         1 YK7       0.031367
     54 H25         13.6200    -5.6320   -42.8340 h1         1 YK7       0.031367
@<TRIPOS>BOND
     1     1    18 ar  
     2     1    19 ar  
     3     1    24 1   
     4     2     3 ar  
     5     2     6 1   
     6     2    19 ar  
     7     3     4 ar  
     8     3     5 1   
     9     4    18 ar  
    10     4    31 1   
    11     5    20 2   
    12     5    21 1   
    13     6     7 1   
    14     6    32 1   
    15     7     8 ar  
    16     7    10 ar  
    17     8    22 ar  
    18     8    33 1   
    19     9    10 ar  
    20     9    23 ar  
    21     9    34 1   
    22    10    35 1   
    23    11    12 ar  
    24    11    14 ar  
    25    11    24 1   
    26    12    25 ar  
    27    12    30 1   
    28    13    25 ar  
    29    13    26 ar  
    30    13    28 1   
    31    14    26 ar  
    32    14    36 1   
    33    15    26 1   
    34    15    27 1   
    35    15    37 1   
    36    15    38 1   
    37    16    27 1   
    38    16    28 1   
    39    16    39 1   
    40    16    40 1   
    41    17    30 1   
    42    17    41 1   
    43    17    42 1   
    44    17    43 1   
    45    21    44 1   
    46    21    45 1   
    47    22    23 ar  
    48    22    46 1   
    49    23    47 1   
    50    24    48 1   
    51    25    49 1   
    52    27    29 1   
    53    28    50 1   
    54    28    51 1   
    55    29    52 1   
    56    29    53 1   
    57    29    54 1   
@<TRIPOS>SUBSTRUCTURE
     1 YK7         1 TEMP              0 ****  ****    0 ROOT
