@<TRIPOS>MOLECULE
YK8
   78    81     1     0     0
SMALL
No Charge or Current Charge


@<TRIPOS>ATOM
      1 C3          11.4470    18.6030     9.5570 c6         1 YK8       0.173300
      2 C15         16.0660    24.5540     7.2770 c5         1 YK8      -0.072400
      3 C16         16.2680    25.4940     6.0470 c5         1 YK8      -0.074400
      4 C17         14.9090    25.3510     5.1820 c5         1 YK8      -0.083700
      5 C20         14.6190    26.5890     4.2440 c3         1 YK8       0.199000
      6 C22         15.8040    26.7780     3.2110 c3         1 YK8      -0.066400
      7 C23         15.7640    27.9930     2.2120 c3         1 YK8      -0.070400
      8 C24         17.0730    28.2110     1.4150 c3         1 YK8      -0.075400
      9 C25         17.4200    27.0660     0.4280 c3         1 YK8      -0.074400
     10 C26         18.7440    27.2620    -0.3600 c3         1 YK8      -0.061700
     11 C21         13.2700    26.4800     3.4920 c3         1 YK8      -0.121100
     12 C2          10.3370    19.5100     8.9880 c6         1 YK8      -0.072400
     13 C13         13.8570    24.9010     6.3070 c5         1 YK8      -0.036000
     14 C18         13.3990    26.0240     7.3350 c3         1 YK8      -0.082100
     15 C12         12.5790    24.1840     5.7640 c6         1 YK8      -0.065400
     16 C11         11.8470    23.3570     6.8590 c6         1 YK8      -0.070400
     17 C9          12.7730    22.3050     7.5660 c6         1 YK8      -0.047700
     18 C10         12.0440    21.4740     8.7060 c6         1 YK8       0.003200
     19 C19         11.4010    22.4110     9.7880 c3         1 YK8      -0.079100
     20 C27         19.0970    25.9930    -1.1690 c3         1 YK8      -0.086600
     21 C28         18.7240    28.5070    -1.2800 c3         1 YK8      -0.086600
     22 C1          10.9350    20.5810     8.0440 c6         1 YK8      -0.068400
     23 C4          12.4910    19.4530    10.3140 c6         1 YK8      -0.074200
     24 C5          13.0660    20.5810     9.4500 c2         1 YK8      -0.107400
     25 C6          14.3960    20.7770     9.3920 c2         1 YK8      -0.216200
     26 C7          15.0750    21.8700     8.5880 c6         1 YK8      -0.037200
     27 C8          14.0980    22.9620     8.0750 c6         1 YK8      -0.042700
     28 C14         14.7610    23.7910     6.9330 c5         1 YK8      -0.065700
     29 O1          10.8770    17.6230    10.4320 oh         1 YK8      -0.661000
     30 O2          14.5530    27.7680     5.0450 oh         1 YK8      -0.663000
     31 H1          11.9500    18.1020     8.7170 h1         1 YK8       0.030700
     32 H2          16.9140    23.8730     7.4100 hc         1 YK8       0.042200
     33 H3          15.9720    25.1240     8.2090 hc         1 YK8       0.042200
     34 H4          17.1840    25.2000     5.4990 hc         1 YK8       0.049200
     35 H5          16.4850    26.5150     6.4140 hc         1 YK8       0.049200
     36 H6          15.0390    24.5200     4.4770 hc         1 YK8       0.046700
     37 H7          15.8840    25.8560     2.6240 hc         1 YK8       0.043700
     38 H8          16.7420    26.8590     3.7700 hc         1 YK8       0.043700
     39 H9          15.5500    28.9060     2.7790 hc         1 YK8       0.044700
     40 H10         14.9390    27.8630     1.5030 hc         1 YK8       0.044700
     41 H11         17.9040    28.3520     2.1170 hc         1 YK8       0.038700
     42 H12         16.9690    29.1490     0.8580 hc         1 YK8       0.038700
     43 H13         16.5920    26.9390    -0.2810 hc         1 YK8       0.036200
     44 H14         17.4950    26.1280     0.9910 hc         1 YK8       0.036200
     45 H15         19.5480    27.4090     0.3730 hc         1 YK8       0.043700
     46 H16         12.4250    26.6000     4.1760 hc         1 YK8       0.040700
     47 H17         13.1590    27.2690     2.7410 hc         1 YK8       0.040700
     48 H18         13.1810    25.5130     2.9830 hc         1 YK8       0.040700
     49 H19          9.7780    19.9870     9.8050 hc         1 YK8       0.053200
     50 H20          9.6110    18.9000     8.4340 hc         1 YK8       0.053200
     51 H21         12.9190    25.6090     8.2270 hc         1 YK8       0.033700
     52 H22         14.2390    26.6330     7.6870 hc         1 YK8       0.033700
     53 H23         12.6770    26.7070     6.8730 hc         1 YK8       0.033700
     54 H24         11.8640    24.9030     5.3540 hc         1 YK8       0.039700
     55 H25         12.8550    23.5180     4.9340 hc         1 YK8       0.039700
     56 H26         11.4100    24.0480     7.5890 hc         1 YK8       0.040200
     57 H27         10.9970    22.8510     6.3840 hc         1 YK8       0.040200
     58 H28         13.0720    21.5880     6.7880 hc         1 YK8       0.045700
     59 H29         10.9660    21.8440    10.6180 hc         1 YK8       0.035033
     60 H30         12.1340    23.0940    10.2290 hc         1 YK8       0.035033
     61 H31         10.5850    23.0160     9.3760 hc         1 YK8       0.035033
     62 H32         19.1730    25.1200    -0.5090 hc         1 YK8       0.031533
     63 H33         18.3300    25.7860    -1.9250 hc         1 YK8       0.031533
     64 H34         20.0600    26.1120    -1.6790 hc         1 YK8       0.031533
     65 H35         18.6320    29.4310    -0.6980 hc         1 YK8       0.031533
     66 H36         19.6550    28.5750    -1.8570 hc         1 YK8       0.031533
     67 H37         17.8880    28.4570    -1.9870 hc         1 YK8       0.031533
     68 H38         10.1150    21.2050     7.6660 hc         1 YK8       0.041700
     69 H39         11.3520    20.0670     7.1670 hc         1 YK8       0.041700
     70 H40         13.2980    18.8010    10.6740 hc         1 YK8       0.049700
     71 H41         12.0320    19.8820    11.2140 hc         1 YK8       0.049700
     72 H42         15.0730    20.1260     9.9480 ha         1 YK8       0.168000
     73 H43         15.5950    21.3980     7.7430 hc         1 YK8       0.047200
     74 H44         15.8550    22.3390     9.2040 hc         1 YK8       0.047200
     75 H45         13.8740    23.6350     8.9120 hc         1 YK8       0.054700
     76 H46         14.9930    23.0450     6.1640 hc         1 YK8       0.042700
     77 H47         11.6140    17.0390    10.7160 ho         1 YK8       0.441000
     78 H48         14.2110    27.4770     5.9140 ho         1 YK8       0.442000
@<TRIPOS>BOND
     1     1    12 1   
     2     1    23 1   
     3     1    29 1   
     4     1    31 1   
     5     2     3 1   
     6     2    28 1   
     7     2    32 1   
     8     2    33 1   
     9     3     4 1   
    10     3    34 1   
    11     3    35 1   
    12     4     5 1   
    13     4    13 1   
    14     4    36 1   
    15     5     6 1   
    16     5    11 1   
    17     5    30 1   
    18     6     7 1   
    19     6    37 1   
    20     6    38 1   
    21     7     8 1   
    22     7    39 1   
    23     7    40 1   
    24     8     9 1   
    25     8    41 1   
    26     8    42 1   
    27     9    10 1   
    28     9    43 1   
    29     9    44 1   
    30    10    20 1   
    31    10    21 1   
    32    10    45 1   
    33    11    46 1   
    34    11    47 1   
    35    11    48 1   
    36    12    22 1   
    37    12    49 1   
    38    12    50 1   
    39    13    14 1   
    40    13    15 1   
    41    13    28 1   
    42    14    51 1   
    43    14    52 1   
    44    14    53 1   
    45    15    16 1   
    46    15    54 1   
    47    15    55 1   
    48    16    17 1   
    49    16    56 1   
    50    16    57 1   
    51    17    18 1   
    52    17    27 1   
    53    17    58 1   
    54    18    19 1   
    55    18    22 1   
    56    18    24 1   
    57    19    59 1   
    58    19    60 1   
    59    19    61 1   
    60    20    62 1   
    61    20    63 1   
    62    20    64 1   
    63    21    65 1   
    64    21    66 1   
    65    21    67 1   
    66    22    68 1   
    67    22    69 1   
    68    23    24 1   
    69    23    70 1   
    70    23    71 1   
    71    24    25 2   
    72    25    26 1   
    73    25    72 1   
    74    26    27 1   
    75    26    73 1   
    76    26    74 1   
    77    27    28 1   
    78    27    75 1   
    79    28    76 1   
    80    29    77 1   
    81    30    78 1   
@<TRIPOS>SUBSTRUCTURE
     1 YK8         1 TEMP              0 ****  ****    0 ROOT
