@<TRIPOS>MOLECULE
YK8
   78    81     1     0     0
SMALL
abcg2


@<TRIPOS>ATOM
      1 C3          11.5450    18.6960     9.4780 c6         1 YK8       0.173300
      2 C15         16.0990    24.5920     7.3850 c5         1 YK8      -0.072400
      3 C16         16.3350    25.4830     6.1500 c5         1 YK8      -0.074400
      4 C17         15.0410    25.4150     5.2950 c5         1 YK8      -0.083700
      5 C20         14.7930    26.7010     4.4660 c3         1 YK8       0.199000
      6 C22         15.9460    26.8200     3.4540 c3         1 YK8      -0.066400
      7 C23         15.9150    28.0320     2.5260 c3         1 YK8      -0.070400
      8 C24         17.1390    28.1140     1.6130 c3         1 YK8      -0.075400
      9 C25         17.2090    26.9970     0.5780 c3         1 YK8      -0.074400
     10 C26         18.4290    27.0520    -0.3440 c3         1 YK8      -0.061700
     11 C21         13.4600    26.6400     3.7200 c3         1 YK8      -0.121100
     12 C2          10.5210    19.4700     8.6720 c6         1 YK8      -0.072400
     13 C13         13.9740    24.8510     6.2720 c5         1 YK8      -0.036000
     14 C18         13.4200    25.9200     7.2190 c3         1 YK8      -0.082100
     15 C12         12.8290    24.0720     5.6230 c6         1 YK8      -0.065400
     16 C11         12.0410    23.2610     6.6520 c6         1 YK8      -0.070400
     17 C9          12.9100    22.3150     7.4880 c6         1 YK8      -0.047700
     18 C10         12.0960    21.5070     8.5310 c6         1 YK8       0.003200
     19 C19         11.2060    22.4240     9.3870 c3         1 YK8      -0.079100
     20 C27         18.4950    25.7990    -1.2130 c3         1 YK8      -0.086600
     21 C28         18.4360    28.2990    -1.2240 c3         1 YK8      -0.086600
     22 C1          11.2140    20.4880     7.7770 c6         1 YK8      -0.068400
     23 C4          12.3890    19.6650    10.3030 c6         1 YK8      -0.074200
     24 C5          13.0260    20.7310     9.4490 c2         1 YK8      -0.107400
     25 C6          14.3360    20.9630     9.5150 c2         1 YK8      -0.216200
     26 C7          15.0560    22.0230     8.7480 c6         1 YK8      -0.037200
     27 C8          14.1140    23.0380     8.1090 c6         1 YK8      -0.042700
     28 C14         14.8370    23.8220     7.0250 c5         1 YK8      -0.065700
     29 O1          10.8640    17.7620    10.2910 oh         1 YK8      -0.661000
     30 O2          14.8480    27.8790     5.2600 oh         1 YK8      -0.663000
     31 H1          12.2130    18.1760     8.7740 h1         1 YK8       0.030700
     32 H2          16.9460    23.9340     7.5860 hc         1 YK8       0.042200
     33 H3          15.9460    25.1920     8.2860 hc         1 YK8       0.042200
     34 H4          17.1930    25.1270     5.5770 hc         1 YK8       0.049200
     35 H5          16.5590    26.5090     6.4390 hc         1 YK8       0.049200
     36 H6          15.1780    24.6230     4.5470 hc         1 YK8       0.046700
     37 H7          15.9500    25.9020     2.8600 hc         1 YK8       0.043700
     38 H8          16.8960    26.8320     3.9980 hc         1 YK8       0.043700
     39 H9          15.8550    28.9450     3.1230 hc         1 YK8       0.044700
     40 H10         15.0180    28.0120     1.9000 hc         1 YK8       0.044700
     41 H11         18.0500    28.1030     2.2210 hc         1 YK8       0.038700
     42 H12         17.1260    29.0830     1.1050 hc         1 YK8       0.038700
     43 H13         16.2980    27.0140    -0.0340 hc         1 YK8       0.036200
     44 H14         17.2090    26.0290     1.0890 hc         1 YK8       0.036200
     45 H15         19.3250    27.0740     0.2880 hc         1 YK8       0.043700
     46 H16         12.6070    26.6490     4.3980 hc         1 YK8       0.040700
     47 H17         13.3430    27.4950     3.0530 hc         1 YK8       0.040700
     48 H18         13.3910    25.7340     3.1160 hc         1 YK8       0.040700
     49 H19          9.8200    19.9650     9.3530 hc         1 YK8       0.053200
     50 H20          9.9320    18.7850     8.0560 hc         1 YK8       0.053200
     51 H21         12.8420    25.4790     8.0310 hc         1 YK8       0.033700
     52 H22         14.2020    26.5240     7.6820 hc         1 YK8       0.033700
     53 H23         12.7310    26.5950     6.7040 hc         1 YK8       0.033700
     54 H24         12.1370    24.7310     5.0950 hc         1 YK8       0.039700
     55 H25         13.2510    23.3990     4.8680 hc         1 YK8       0.039700
     56 H26         11.5010    23.9480     7.3070 hc         1 YK8       0.040200
     57 H27         11.2730    22.6870     6.1270 hc         1 YK8       0.040200
     58 H28         13.3410    21.5780     6.7920 hc         1 YK8       0.045700
     59 H29         10.7690    21.8910    10.2310 hc         1 YK8       0.035033
     60 H30         11.7750    23.2610     9.7930 hc         1 YK8       0.035033
     61 H31         10.3780    22.8310     8.8050 hc         1 YK8       0.035033
     62 H32         18.5190    24.8910    -0.6070 hc         1 YK8       0.031533
     63 H33         17.6220    25.7360    -1.8680 hc         1 YK8       0.031533
     64 H34         19.3840    25.8000    -1.8460 hc         1 YK8       0.031533
     65 H35         18.4540    29.2200    -0.6400 hc         1 YK8       0.031533
     66 H36         19.3080    28.3110    -1.8790 hc         1 YK8       0.031533
     67 H37         17.5450    28.3260    -1.8580 hc         1 YK8       0.031533
     68 H38         10.4650    21.0200     7.1850 hc         1 YK8       0.041700
     69 H39         11.8450    19.9480     7.0620 hc         1 YK8       0.041700
     70 H40         13.1640    19.1190    10.8520 hc         1 YK8       0.049700
     71 H41         11.7370    20.1230    11.0570 hc         1 YK8       0.049700
     72 H42         14.9420    20.3490    10.1770 ha         1 YK8       0.168000
     73 H43         15.6770    21.5510     7.9740 hc         1 YK8       0.047200
     74 H44         15.7640    22.5320     9.4090 hc         1 YK8       0.047200
     75 H45         13.7680    23.7180     8.8970 hc         1 YK8       0.054700
     76 H46         15.1300    23.0730     6.2720 hc         1 YK8       0.042700
     77 H47         11.5170    17.2540    10.7820 ho         1 YK8       0.441000
     78 H48         14.0660    27.9100     5.8190 ho         1 YK8       0.442000
@<TRIPOS>BOND
     1     1    12 1   
     2     1    23 1   
     3     1    29 1   
     4     1    31 1   
     5     2     3 1   
     6     2    28 1   
     7     2    32 1   
     8     2    33 1   
     9     3     4 1   
    10     3    34 1   
    11     3    35 1   
    12     4     5 1   
    13     4    13 1   
    14     4    36 1   
    15     5     6 1   
    16     5    11 1   
    17     5    30 1   
    18     6     7 1   
    19     6    37 1   
    20     6    38 1   
    21     7     8 1   
    22     7    39 1   
    23     7    40 1   
    24     8     9 1   
    25     8    41 1   
    26     8    42 1   
    27     9    10 1   
    28     9    43 1   
    29     9    44 1   
    30    10    20 1   
    31    10    21 1   
    32    10    45 1   
    33    11    46 1   
    34    11    47 1   
    35    11    48 1   
    36    12    22 1   
    37    12    49 1   
    38    12    50 1   
    39    13    14 1   
    40    13    15 1   
    41    13    28 1   
    42    14    51 1   
    43    14    52 1   
    44    14    53 1   
    45    15    16 1   
    46    15    54 1   
    47    15    55 1   
    48    16    17 1   
    49    16    56 1   
    50    16    57 1   
    51    17    18 1   
    52    17    27 1   
    53    17    58 1   
    54    18    19 1   
    55    18    22 1   
    56    18    24 1   
    57    19    59 1   
    58    19    60 1   
    59    19    61 1   
    60    20    62 1   
    61    20    63 1   
    62    20    64 1   
    63    21    65 1   
    64    21    66 1   
    65    21    67 1   
    66    22    68 1   
    67    22    69 1   
    68    23    24 1   
    69    23    70 1   
    70    23    71 1   
    71    24    25 2   
    72    25    26 1   
    73    25    72 1   
    74    26    27 1   
    75    26    73 1   
    76    26    74 1   
    77    27    28 1   
    78    27    75 1   
    79    28    76 1   
    80    29    77 1   
    81    30    78 1   
@<TRIPOS>SUBSTRUCTURE
     1 YK8         1 TEMP              0 ****  ****    0 ROOT
