@<TRIPOS>MOLECULE
YK9
   34    38     1     0     0
SMALL
abcg2


@<TRIPOS>ATOM
      1 C15          8.5450    10.3370    23.4680 ca         1 YK9      -0.091000
      2 C19          7.4790     9.7540    22.7900 ca         1 YK9      -0.115000
      3 C8           8.3890    11.5120    24.2100 ca         1 YK9      -0.072000
      4 C14          6.2130    10.3370    22.8520 ca         1 YK9      -0.044000
      5 C20         11.5580    14.7100    28.1680 ca         1 YK9      -0.166000
      6 C22         12.8380    14.7120    27.6350 ca         1 YK9       0.344900
      7 C21         12.1330    14.4280    25.4520 ca         1 YK9       0.404900
      8 C3           7.1350    12.1010    24.2680 cp         1 YK9      -0.019000
      9 C7           6.0590    11.4940    23.5920 ca         1 YK9      -0.178600
     10 C17         10.5280    14.5560    27.2470 ca         1 YK9      -0.048200
     11 C18         10.8050    14.4090    25.8720 ca         1 YK9       0.004400
     12 C5           8.6680    14.3140    26.0670 cc         1 YK9       0.469400
     13 C1           6.6220    13.3050    24.9800 cp         1 YK9       0.044000
     14 C9           4.8210    12.2740    23.8490 c          1 YK9       0.596300
     15 C2           7.2250    14.2550    25.8050 ca         1 YK9      -0.108900
     16 C6           6.4040    15.2310    26.4040 ca         1 YK9      -0.079000
     17 C13          5.0380    15.2870    26.1730 ca         1 YK9      -0.123000
     18 C10          4.4380    14.3550    25.3260 ca         1 YK9      -0.027000
     19 N23         13.1280    14.5770    26.3230 nb         1 YK9      -0.683000
     20 N11          9.1630    14.4990    27.3390 na         1 YK9      -0.314600
     21 C30          5.2350    13.3870    24.7510 ca         1 YK9      -0.185600
     22 N12          9.6240    14.2640    25.1640 nd         1 YK9      -0.547100
     23 O16          3.7010    12.0540    23.4250 o          1 YK9      -0.495100
     24 H15          9.5230     9.8730    23.4200 ha         1 YK9       0.118000
     25 H19          7.6320     8.8470    22.2200 ha         1 YK9       0.120000
     26 H8           9.2360    11.9480    24.7140 ha         1 YK9       0.138000
     27 H14          5.3660     9.8940    22.3420 ha         1 YK9       0.132000
     28 H22         13.6890    14.8290    28.2960 h4         1 YK9       0.021100
     29 H21         12.3900    14.3200    24.4040 h4         1 YK9       0.036100
     30 H11          8.6160    14.5330    28.1860 hn         1 YK9       0.363000
     31 H6           6.8620    15.9730    27.0450 ha         1 YK9       0.116000
     32 H13          4.4460    16.0590    26.6460 ha         1 YK9       0.125000
     33 H10          3.3740    14.3810    25.1260 ha         1 YK9       0.137000
     34 H20         11.3870    14.8220    29.2300 ha         1 YK9       0.128000
@<TRIPOS>BOND
     1     1     2 ar  
     2     1     3 ar  
     3     1    24 1   
     4     2     4 ar  
     5     2    25 1   
     6     3     8 ar  
     7     3    26 1   
     8     4     9 ar  
     9     4    27 1   
    10     5     6 ar  
    11     5    10 ar  
    12     5    34 1   
    13     6    19 ar  
    14     6    28 1   
    15     7    11 ar  
    16     7    19 ar  
    17     7    29 1   
    18     8     9 ar  
    19     8    13 1   
    20     9    14 1   
    21    10    11 ar  
    22    10    20 1   
    23    11    22 1   
    24    12    15 1   
    25    12    20 1   
    26    12    22 2   
    27    13    15 ar  
    28    13    21 ar  
    29    14    21 1   
    30    14    23 2   
    31    15    16 ar  
    32    16    17 ar  
    33    16    31 1   
    34    17    18 ar  
    35    17    32 1   
    36    18    21 ar  
    37    18    33 1   
    38    20    30 1   
@<TRIPOS>SUBSTRUCTURE
     1 YK9         1 TEMP              0 ****  ****    0 ROOT
