@<TRIPOS>MOLECULE
YK9
   34    38     1     0     0
SMALL
No Charge or Current Charge


@<TRIPOS>ATOM
      1 C15          8.5330    10.2540    23.5230 ca         1 YK9      -0.091000
      2 C19          7.4820     9.7300    22.7360 ca         1 YK9      -0.115000
      3 C8           8.3400    11.4120    24.3090 ca         1 YK9      -0.072000
      4 C14          6.2160    10.3470    22.7380 ca         1 YK9      -0.044000
      5 C20         11.5890    14.7560    28.1310 ca         1 YK9      -0.166000
      6 C22         12.9010    14.7930    27.6110 ca         1 YK9       0.344900
      7 C21         12.1390    14.4630    25.4250 ca         1 YK9       0.404900
      8 C3           7.0860    12.0650    24.2830 cp         1 YK9      -0.019000
      9 C7           6.0550    11.4970    23.5220 ca         1 YK9      -0.178600
     10 C17         10.5540    14.5610    27.2130 ca         1 YK9      -0.048200
     11 C18         10.8020    14.4140    25.8830 ca         1 YK9       0.004400
     12 C5           8.6550    14.2600    26.1220 cc         1 YK9       0.469400
     13 C1           6.5760    13.2640    25.0100 cp         1 YK9       0.044000
     14 C9           4.8350    12.3200    23.7830 c          1 YK9       0.596300
     15 C2           7.2150    14.1960    25.8760 ca         1 YK9      -0.108900
     16 C6           6.4040    15.1990    26.4710 ca         1 YK9      -0.079000
     17 C13          5.0200    15.2920    26.2050 ca         1 YK9      -0.123000
     18 C10          4.4010    14.3930    25.3210 ca         1 YK9      -0.027000
     19 N23         13.1830    14.6500    26.2850 nb         1 YK9      -0.683000
     20 N11          9.2080    14.4830    27.3810 na         1 YK9      -0.314600
     21 C30          5.2040    13.4020    24.7470 ca         1 YK9      -0.185600
     22 N12          9.6120    14.2380    25.1690 nd         1 YK9      -0.547100
     23 O16          3.7250    12.1350    23.2990 o          1 YK9      -0.495100
     24 H15          9.4980     9.7530    23.5340 ha         1 YK9       0.118000
     25 H19          7.6450     8.8340    22.1410 ha         1 YK9       0.120000
     26 H8           9.1510    11.7670    24.9330 ha         1 YK9       0.138000
     27 H14          5.3890     9.9370    22.1610 ha         1 YK9       0.132000
     28 H22         13.7530    14.9410    28.2730 h4         1 YK9       0.021100
     29 H21         12.3790    14.3520    24.3680 h4         1 YK9       0.036100
     30 H11          8.6930    14.5620    28.2470 hn         1 YK9       0.363000
     31 H6           6.8550    15.9410    27.1280 ha         1 YK9       0.116000
     32 H13          4.4310    16.0790    26.6720 ha         1 YK9       0.125000
     33 H10          3.3390    14.4620    25.0950 ha         1 YK9       0.137000
     34 H20         11.4030    14.8760    29.1950 ha         1 YK9       0.128000
@<TRIPOS>BOND
     1     1     2 ar  
     2     1     3 ar  
     3     1    24 1   
     4     2     4 ar  
     5     2    25 1   
     6     3     8 ar  
     7     3    26 1   
     8     4     9 ar  
     9     4    27 1   
    10     5     6 ar  
    11     5    10 ar  
    12     5    34 1   
    13     6    19 ar  
    14     6    28 1   
    15     7    11 ar  
    16     7    19 ar  
    17     7    29 1   
    18     8     9 ar  
    19     8    13 1   
    20     9    14 1   
    21    10    11 ar  
    22    10    20 1   
    23    11    22 1   
    24    12    15 1   
    25    12    20 1   
    26    12    22 2   
    27    13    15 ar  
    28    13    21 ar  
    29    14    21 1   
    30    14    23 2   
    31    15    16 ar  
    32    16    17 ar  
    33    16    31 1   
    34    17    18 ar  
    35    17    32 1   
    36    18    21 ar  
    37    18    33 1   
    38    20    30 1   
@<TRIPOS>SUBSTRUCTURE
     1 YK9         1 TEMP              0 ****  ****    0 ROOT
