@<TRIPOS>MOLECULE
YKB
   49    53     1     0     0
SMALL
abcg2


@<TRIPOS>ATOM
      1 C1           8.0270    35.1410   -24.0350 ca         1 YKB      -0.111000
      2 C2           6.8690    35.6490   -23.4490 ca         1 YKB      -0.102000
      3 C3           5.6940    34.8980   -23.4520 ca         1 YKB      -0.089000
      4 C4           8.0400    33.8830   -24.6310 ca         1 YKB      -0.064000
      5 C5           6.8680    33.1270   -24.6400 cp         1 YKB      -0.037000
      6 C6           5.7060    33.6490   -24.0470 ca         1 YKB      -0.107300
      7 C7           4.5590    32.6750   -24.1860 c5         1 YKB       0.191300
      8 C8           6.5330    31.8240   -25.2500 cp         1 YKB       0.025000
      9 C9           5.1600    31.5910   -25.0580 ca         1 YKB      -0.115300
     10 C10          4.5130    30.5060   -25.6170 ca         1 YKB      -0.064000
     11 C11          5.2500    29.6160   -26.3960 ca         1 YKB      -0.113000
     12 C12          6.6140    29.8100   -26.5730 ca         1 YKB      -0.095000
     13 C13          7.2820    30.8990   -25.9930 ca         1 YKB      -0.106900
     14 C14          8.7360    30.9850   -26.1620 cc         1 YKB       0.483400
     15 N15          9.6140    31.1800   -25.1920 nd         1 YKB      -0.567100
     16 N16          9.3390    30.7910   -27.3750 na         1 YKB      -0.304600
     17 C17         10.6980    30.8790   -27.1800 ca         1 YKB      -0.143200
     18 C18         10.8510    31.1240   -25.7990 ca         1 YKB       0.097400
     19 C19         12.1420    31.2610   -25.2880 ca         1 YKB      -0.100000
     20 C20         13.1830    31.1470   -26.1950 ca         1 YKB       0.302900
     21 N21         13.0320    30.9150   -27.5160 nb         1 YKB      -0.655000
     22 C22         11.8040    30.7810   -28.0150 ca         1 YKB       0.347900
     23 N23          3.3340    33.2620   -24.6880 ns         1 YKB      -0.493900
     24 C24          2.1280    33.0600   -24.1160 c          1 YKB       0.595100
     25 C25          0.9590    33.7230   -24.8180 c3         1 YKB      -0.144400
     26 O26          1.9750    32.3760   -23.1040 o          1 YKB      -0.611100
     27 C27          0.0180    34.3980   -23.8220 c3         1 YKB      -0.148400
     28 C28         -1.1390    35.0950   -24.5150 c          1 YKB       0.596100
     29 O29         -0.9810    35.7500   -25.5460 o          1 YKB      -0.616100
     30 N30         -2.3370    34.9750   -23.9150 nt         1 YKB      -0.607000
     31 H1           8.9330    35.7350   -24.0310 ha         1 YKB       0.117000
     32 H2           6.8800    36.6320   -22.9940 ha         1 YKB       0.116000
     33 H4           8.9470    33.5060   -25.0750 ha         1 YKB       0.134000
     34 H3           4.7860    35.2880   -23.0090 ha         1 YKB       0.121000
     35 H7           4.3070    32.2490   -23.2100 h1         1 YKB       0.114700
     36 H23          3.3880    33.8240   -25.5240 hn         1 YKB       0.321500
     37 H10          3.4520    30.3570   -25.4620 ha         1 YKB       0.127000
     38 H11          4.7670    28.7630   -26.8540 ha         1 YKB       0.121000
     39 H12          7.1840    29.0930   -27.1500 ha         1 YKB       0.114000
     40 H16          8.8650    30.6540   -28.2550 hn         1 YKB       0.363000
     41 H22         11.7040    30.5950   -29.0780 h4         1 YKB       0.022100
     42 H19         12.3280    31.4470   -24.2390 ha         1 YKB       0.138000
     43 H20         14.2070    31.2470   -25.8510 h4         1 YKB       0.022100
     44 H251         1.3050    34.4430   -25.5580 hc         1 YKB       0.073700
     45 H252         0.4230    32.9350   -25.3570 hc         1 YKB       0.073700
     46 H271        -0.3460    33.6740   -23.0950 hc         1 YKB       0.071200
     47 H272         0.5620    35.1690   -23.2670 hc         1 YKB       0.071200
     48 H301        -3.1390    35.4470   -24.3030 hn         1 YKB       0.317500
     49 H302        -2.4590    34.4260   -23.0810 hn         1 YKB       0.317500
@<TRIPOS>BOND
     1     1     2 ar  
     2     1     4 ar  
     3     1    31 1   
     4     2     3 ar  
     5     2    32 1   
     6     3     6 ar  
     7     3    34 1   
     8     4     5 ar  
     9     4    33 1   
    10     5     6 ar  
    11     5     8 1   
    12     6     7 1   
    13     7     9 1   
    14     7    23 1   
    15     7    35 1   
    16     8     9 ar  
    17     8    13 ar  
    18     9    10 ar  
    19    10    11 ar  
    20    10    37 1   
    21    11    12 ar  
    22    11    38 1   
    23    12    13 ar  
    24    12    39 1   
    25    13    14 1   
    26    14    15 2   
    27    14    16 1   
    28    15    18 1   
    29    16    17 1   
    30    16    40 1   
    31    17    18 ar  
    32    17    22 ar  
    33    18    19 ar  
    34    19    20 ar  
    35    19    42 1   
    36    20    21 ar  
    37    20    43 1   
    38    21    22 ar  
    39    22    41 1   
    40    23    24 1   
    41    23    36 1   
    42    24    25 1   
    43    24    26 2   
    44    25    27 1   
    45    25    44 1   
    46    25    45 1   
    47    27    28 1   
    48    27    46 1   
    49    27    47 1   
    50    28    29 2   
    51    28    30 1   
    52    30    48 1   
    53    30    49 1   
@<TRIPOS>SUBSTRUCTURE
     1 YKB         1 TEMP              0 ****  ****    0 ROOT
