@<TRIPOS>MOLECULE
YKB
   49    53     1     0     0
SMALL
No Charge or Current Charge


@<TRIPOS>ATOM
      1 C1           8.0100    35.1870   -23.9930 ca         1 YKB      -0.111000
      2 C2           6.9050    35.6530   -23.2480 ca         1 YKB      -0.102000
      3 C3           5.7260    34.8880   -23.1750 ca         1 YKB      -0.089000
      4 C4           7.9560    33.9430   -24.6570 ca         1 YKB      -0.064000
      5 C5           6.7910    33.1470   -24.5510 cp         1 YKB      -0.037000
      6 C6           5.6970    33.6540   -23.8390 ca         1 YKB      -0.107300
      7 C7           4.5450    32.6610   -23.9890 c5         1 YKB       0.191300
      8 C8           6.4470    31.8410   -25.1540 cp         1 YKB       0.025000
      9 C9           5.1020    31.5480   -24.8830 ca         1 YKB      -0.115300
     10 C10          4.4570    30.4080   -25.3750 ca         1 YKB      -0.064000
     11 C11          5.2000    29.5250   -26.1740 ca         1 YKB      -0.113000
     12 C12          6.5620    29.7790   -26.4410 ca         1 YKB      -0.095000
     13 C13          7.2190    30.9280   -25.9310 ca         1 YKB      -0.106900
     14 C14          8.6590    31.0370   -26.1660 cc         1 YKB       0.483400
     15 N15          9.5950    31.2280   -25.2120 nd         1 YKB      -0.567100
     16 N16          9.2490    30.8210   -27.4100 na         1 YKB      -0.304600
     17 C17         10.6000    30.9250   -27.2300 ca         1 YKB      -0.143200
     18 C18         10.7970    31.1690   -25.9080 ca         1 YKB       0.097400
     19 C19         12.1010    31.3180   -25.4260 ca         1 YKB      -0.100000
     20 C20         13.1510    31.2050   -26.3620 ca         1 YKB       0.302900
     21 N21         12.9540    30.9610   -27.6900 nb         1 YKB      -0.655000
     22 C22         11.6750    30.8190   -28.1270 ca         1 YKB       0.347900
     23 N23          3.3680    33.3030   -24.5770 ns         1 YKB      -0.493900
     24 C24          2.1140    32.8760   -24.1950 c          1 YKB       0.595100
     25 C25          0.9530    33.6070   -24.8780 c3         1 YKB      -0.144400
     26 O26          1.9270    31.9680   -23.3960 o          1 YKB      -0.611100
     27 C27          0.2350    34.5840   -23.9060 c3         1 YKB      -0.148400
     28 C28         -0.9300    35.3050   -24.5900 c          1 YKB       0.596100
     29 O29         -0.7890    36.3020   -25.2770 o          1 YKB      -0.616100
     30 N30         -2.1560    34.7740   -24.4000 nt         1 YKB      -0.607000
     31 H1           8.9070    35.7970   -24.0660 ha         1 YKB       0.117000
     32 H2           6.9580    36.6170   -22.7450 ha         1 YKB       0.116000
     33 H4           8.8030    33.6300   -25.2560 ha         1 YKB       0.134000
     34 H3           4.8570    35.2500   -22.6300 ha         1 YKB       0.121000
     35 H7           4.3290    32.2430   -22.9950 h1         1 YKB       0.114700
     36 H23          3.4240    34.0560   -25.2500 hn         1 YKB       0.321500
     37 H10          3.4120    30.2120   -25.1470 ha         1 YKB       0.127000
     38 H11          4.7280    28.6300   -26.5720 ha         1 YKB       0.121000
     39 H12          7.1200    29.0520   -27.0290 ha         1 YKB       0.114000
     40 H16          8.7540    30.6310   -28.2720 hn         1 YKB       0.363000
     41 H22         11.5230    30.6220   -29.1880 h4         1 YKB       0.022100
     42 H19         12.3010    31.5110   -24.3770 ha         1 YKB       0.138000
     43 H20         14.1870    31.3130   -26.0410 h4         1 YKB       0.022100
     44 H251         1.3250    34.1810   -25.7360 hc         1 YKB       0.073700
     45 H252         0.2280    32.8600   -25.2220 hc         1 YKB       0.073700
     46 H271        -0.1450    33.9950   -23.0620 hc         1 YKB       0.071200
     47 H272         0.9580    35.3290   -23.5540 hc         1 YKB       0.071200
     48 H301        -2.9560    35.2130   -24.8310 hn         1 YKB       0.317500
     49 H302        -2.2680    33.9460   -23.8330 hn         1 YKB       0.317500
@<TRIPOS>BOND
     1     1     2 ar  
     2     1     4 ar  
     3     1    31 1   
     4     2     3 ar  
     5     2    32 1   
     6     3     6 ar  
     7     3    34 1   
     8     4     5 ar  
     9     4    33 1   
    10     5     6 ar  
    11     5     8 1   
    12     6     7 1   
    13     7     9 1   
    14     7    23 1   
    15     7    35 1   
    16     8     9 ar  
    17     8    13 ar  
    18     9    10 ar  
    19    10    11 ar  
    20    10    37 1   
    21    11    12 ar  
    22    11    38 1   
    23    12    13 ar  
    24    12    39 1   
    25    13    14 1   
    26    14    15 2   
    27    14    16 1   
    28    15    18 1   
    29    16    17 1   
    30    16    40 1   
    31    17    18 ar  
    32    17    22 ar  
    33    18    19 ar  
    34    19    20 ar  
    35    19    42 1   
    36    20    21 ar  
    37    20    43 1   
    38    21    22 ar  
    39    22    41 1   
    40    23    24 1   
    41    23    36 1   
    42    24    25 1   
    43    24    26 2   
    44    25    27 1   
    45    25    44 1   
    46    25    45 1   
    47    27    28 1   
    48    27    46 1   
    49    27    47 1   
    50    28    29 2   
    51    28    30 1   
    52    30    48 1   
    53    30    49 1   
@<TRIPOS>SUBSTRUCTURE
     1 YKB         1 TEMP              0 ****  ****    0 ROOT
