@<TRIPOS>MOLECULE
YKC
   48    53     1     0     0
SMALL
No Charge or Current Charge


@<TRIPOS>ATOM
      1 C1           7.9830    10.1060    23.9300 ca         1 YKC      -0.109000
      2 C2           6.8910     9.5890    23.1990 ca         1 YKC      -0.103000
      3 C3           5.6840    10.3100    23.1260 ca         1 YKC      -0.089000
      4 C4           7.8880    11.3550    24.5790 ca         1 YKC      -0.065000
      5 C5           6.6930    12.1060    24.4720 cp         1 YKC      -0.037000
      6 C6           5.6140    11.5510    23.7740 ca         1 YKC      -0.109300
      7 C7           4.4270    12.5010    23.9220 c5         1 YKC       0.195300
      8 C8           6.3070    13.4070    25.0610 cp         1 YKC       0.024000
      9 C9           4.9500    13.6460    24.7960 ca         1 YKC      -0.119300
     10 C10          4.2670    14.7680    25.2790 ca         1 YKC      -0.064000
     11 C11          4.9830    15.6880    26.0610 ca         1 YKC      -0.113000
     12 C12          6.3560    15.4880    26.3200 ca         1 YKC      -0.094000
     13 C13          7.0510    14.3570    25.8190 ca         1 YKC      -0.105900
     14 C14          8.4950    14.3030    26.0450 cc         1 YKC       0.482400
     15 N15          9.4300    14.1350    25.0860 nd         1 YKC      -0.567100
     16 N16          9.0860    14.5550    27.2820 na         1 YKC      -0.305600
     17 C17         10.4380    14.4980    27.0930 ca         1 YKC      -0.143200
     18 C18         10.6340    14.2460    25.7720 ca         1 YKC       0.097400
     19 C19         11.9390    14.1400    25.2820 ca         1 YKC      -0.100000
     20 C20         12.9920    14.3010    26.2090 ca         1 YKC       0.303900
     21 N21         12.7950    14.5540    27.5350 nb         1 YKC      -0.655000
     22 C22         11.5150    14.6540    27.9810 ca         1 YKC       0.347900
     23 N23          3.2810    11.8230    24.5300 ns         1 YKC      -0.488900
     24 C24          2.0040    12.2140    24.1760 c          1 YKC       0.608700
     25 C25          0.8680    11.4730    24.8550 ca         1 YKC      -0.111600
     26 O26          1.7940    13.1060    23.3640 o          1 YKC      -0.593100
     27 C27         -0.4740    11.8030    24.5600 ca         1 YKC      -0.129000
     28 C28         -1.5220    11.1130    25.1930 ca         1 YKC       0.329400
     29 C40          1.0730    10.4360    25.7980 ca         1 YKC      -0.129000
     30 N30         -1.3170    10.1240    26.0920 nb         1 YKC      -0.649000
     31 C60         -0.0360     9.7980    26.3830 ca         1 YKC       0.329400
     32 H1           8.9030     9.5300    24.0040 ha         1 YKC       0.117000
     33 H2           6.9750     8.6220    22.7090 ha         1 YKC       0.117000
     34 H4           8.7280    11.7070    25.1670 ha         1 YKC       0.136000
     35 H3           4.8250     9.9080    22.5930 ha         1 YKC       0.122000
     36 H7           4.1870    12.8970    22.9240 h1         1 YKC       0.114700
     37 H23          3.3760    11.0810    25.2080 hn         1 YKC       0.321500
     38 H10          3.2140    14.9240    25.0570 ha         1 YKC       0.129000
     39 H11          4.4820    16.5710    26.4510 ha         1 YKC       0.122000
     40 H12          6.8910    16.2420    26.8940 ha         1 YKC       0.116000
     41 H16          8.5900    14.7370    28.1450 hn         1 YKC       0.363000
     42 H22         11.3630    14.8570    29.0400 h4         1 YKC       0.022100
     43 H19         12.1390    13.9410    24.2340 ha         1 YKC       0.139000
     44 H20         14.0280    14.2280    25.8820 h4         1 YKC       0.022100
     45 H27         -0.7140    12.5880    23.8480 ha         1 YKC       0.134500
     46 H40          2.0660    10.1090    26.0910 ha         1 YKC       0.134500
     47 H28         -2.5600    11.3600    24.9730 h4         1 YKC       0.025100
     48 H60          0.1060     8.9990    27.1090 h4         1 YKC       0.025100
@<TRIPOS>BOND
     1     1     2 ar  
     2     1     4 ar  
     3     1    32 1   
     4     2     3 ar  
     5     2    33 1   
     6     3     6 ar  
     7     3    35 1   
     8     4     5 ar  
     9     4    34 1   
    10     5     6 ar  
    11     5     8 1   
    12     6     7 1   
    13     7     9 1   
    14     7    23 1   
    15     7    36 1   
    16     8     9 ar  
    17     8    13 ar  
    18     9    10 ar  
    19    10    11 ar  
    20    10    38 1   
    21    11    12 ar  
    22    11    39 1   
    23    12    13 ar  
    24    12    40 1   
    25    13    14 1   
    26    14    15 2   
    27    14    16 1   
    28    15    18 1   
    29    16    17 1   
    30    16    41 1   
    31    17    18 ar  
    32    17    22 ar  
    33    18    19 ar  
    34    19    20 ar  
    35    19    43 1   
    36    20    21 ar  
    37    20    44 1   
    38    21    22 ar  
    39    22    42 1   
    40    23    24 1   
    41    23    37 1   
    42    24    25 1   
    43    24    26 2   
    44    25    27 ar  
    45    25    29 ar  
    46    27    28 ar  
    47    27    45 1   
    48    28    30 ar  
    49    28    47 1   
    50    29    31 ar  
    51    29    46 1   
    52    30    31 ar  
    53    31    48 1   
@<TRIPOS>SUBSTRUCTURE
     1 YKC         1 TEMP              0 ****  ****    0 ROOT
