@<TRIPOS>MOLECULE
YKC
   48    53     1     0     0
SMALL
abcg2


@<TRIPOS>ATOM
      1 C1           7.9490    10.1640    23.9340 ca         1 YKC      -0.109000
      2 C2           6.8110     9.6010    23.3600 ca         1 YKC      -0.103000
      3 C3           5.6140    10.3170    23.3300 ca         1 YKC      -0.089000
      4 C4           7.9210    11.4420    24.4860 ca         1 YKC      -0.065000
      5 C5           6.7280    12.1620    24.4620 cp         1 YKC      -0.037000
      6 C6           5.5850    11.5850    23.8810 ca         1 YKC      -0.109300
      7 C7           4.4080    12.5280    23.9780 c5         1 YKC       0.195300
      8 C8           6.3540    13.4830    25.0090 cp         1 YKC       0.024000
      9 C9           4.9810    13.6810    24.7780 ca         1 YKC      -0.119300
     10 C10          4.3050    14.7830    25.2610 ca         1 YKC      -0.064000
     11 C11          5.0100    15.7280    26.0050 ca         1 YKC      -0.113000
     12 C12          6.3700    15.5610    26.2300 ca         1 YKC      -0.094000
     13 C13          7.0670    14.4530    25.7290 ca         1 YKC      -0.105900
     14 C14          8.5130    14.3820    25.9740 cc         1 YKC       0.482400
     15 N15          9.4490    14.1800    25.0620 nd         1 YKC      -0.567100
     16 N16          9.0390    14.5880    27.2210 na         1 YKC      -0.305600
     17 C17         10.4080    14.5020    27.1100 ca         1 YKC      -0.143200
     18 C18         10.6460    14.2450    25.7440 ca         1 YKC       0.097400
     19 C19         11.9660    14.1050    25.3160 ca         1 YKC      -0.100000
     20 C20         12.9490    14.2260    26.2860 ca         1 YKC       0.303900
     21 N21         12.7150    14.4680    27.5930 nb         1 YKC      -0.655000
     22 C22         11.4590    14.6060    28.0130 ca         1 YKC       0.347900
     23 N23          3.2280    11.9250    24.5660 ns         1 YKC      -0.488900
     24 C24          1.9900    12.0680    24.0530 c          1 YKC       0.608700
     25 C25          0.8900    11.3670    24.7990 ca         1 YKC      -0.111600
     26 O26          1.7460    12.7250    23.0420 o          1 YKC      -0.593100
     27 C27         -0.4010    11.8810    24.7210 ca         1 YKC      -0.129000
     28 C28         -1.4230    11.2320    25.4000 ca         1 YKC       0.329400
     29 C40          1.0910    10.2090    25.5460 ca         1 YKC      -0.129000
     30 N30         -1.2370    10.1200    26.1190 nb         1 YKC      -0.649000
     31 C60          0.0010     9.6250    26.1790 ca         1 YKC       0.329400
     32 H1           8.8730     9.5980    23.9540 ha         1 YKC       0.117000
     33 H2           6.8550     8.6050    22.9380 ha         1 YKC       0.117000
     34 H4           8.8140    11.8620    24.9200 ha         1 YKC       0.136000
     35 H3           4.7210     9.8850    22.8950 ha         1 YKC       0.122000
     36 H7           4.1100    12.8780    22.9860 h1         1 YKC       0.114700
     37 H23          3.3430    11.4490    25.4480 hn         1 YKC       0.321500
     38 H10          3.2440    14.9040    25.0760 ha         1 YKC       0.129000
     39 H11          4.5040    16.5980    26.4010 ha         1 YKC       0.122000
     40 H12          6.9130    16.3120    26.7880 ha         1 YKC       0.116000
     41 H16          8.5100    14.7310    28.0680 hn         1 YKC       0.363000
     42 H22         11.2930    14.8000    29.0670 h4         1 YKC       0.022100
     43 H19         12.2180    13.9090    24.2820 ha         1 YKC       0.139000
     44 H20         13.9920    14.1240    26.0080 h4         1 YKC       0.022100
     45 H27         -0.6010    12.7730    24.1440 ha         1 YKC       0.134500
     46 H40          2.0640     9.7420    25.6230 ha         1 YKC       0.134500
     47 H28         -2.4340    11.6210    25.3630 h4         1 YKC       0.025100
     48 H60          0.1340     8.7160    26.7560 h4         1 YKC       0.025100
@<TRIPOS>BOND
     1     1     2 ar  
     2     1     4 ar  
     3     1    32 1   
     4     2     3 ar  
     5     2    33 1   
     6     3     6 ar  
     7     3    35 1   
     8     4     5 ar  
     9     4    34 1   
    10     5     6 ar  
    11     5     8 1   
    12     6     7 1   
    13     7     9 1   
    14     7    23 1   
    15     7    36 1   
    16     8     9 ar  
    17     8    13 ar  
    18     9    10 ar  
    19    10    11 ar  
    20    10    38 1   
    21    11    12 ar  
    22    11    39 1   
    23    12    13 ar  
    24    12    40 1   
    25    13    14 1   
    26    14    15 2   
    27    14    16 1   
    28    15    18 1   
    29    16    17 1   
    30    16    41 1   
    31    17    18 ar  
    32    17    22 ar  
    33    18    19 ar  
    34    19    20 ar  
    35    19    43 1   
    36    20    21 ar  
    37    20    44 1   
    38    21    22 ar  
    39    22    42 1   
    40    23    24 1   
    41    23    37 1   
    42    24    25 1   
    43    24    26 2   
    44    25    27 ar  
    45    25    29 ar  
    46    27    28 ar  
    47    27    45 1   
    48    28    30 ar  
    49    28    47 1   
    50    29    31 ar  
    51    29    46 1   
    52    30    31 ar  
    53    31    48 1   
@<TRIPOS>SUBSTRUCTURE
     1 YKC         1 TEMP              0 ****  ****    0 ROOT
