@<TRIPOS>MOLECULE
YKE
   54    60     1     0     0
SMALL
No Charge or Current Charge


@<TRIPOS>ATOM
      1 C1           2.2580     3.9690    -0.6600 ca         1 YKE      -0.108000
      2 C2           0.9370     4.1280    -1.1440 ca         1 YKE      -0.099000
      3 C3          -0.0570     3.1710    -0.8440 ca         1 YKE      -0.095000
      4 C4           2.6010     2.8510     0.1300 ca         1 YKE      -0.085000
      5 C5           1.5980     1.9150     0.4160 ca         1 YKE      -0.024000
      6 C6           0.3060     2.0700    -0.0530 ca         1 YKE      -0.047000
      7 C7          -0.4750     0.9330     0.3980 cc         1 YKE       0.029600
      8 C8           1.6670     0.6920     1.1910 cc         1 YKE      -0.126200
      9 C9           0.3650     0.0740     1.2030 cc         1 YKE      -0.065000
     10 C10          0.1070    -1.0540     1.9180 cf         1 YKE      -0.047000
     11 C11          1.1490    -1.6940     2.6990 cf         1 YKE      -0.214000
     12 C12          2.4090    -1.1960     2.7210 c2         1 YKE      -0.166200
     13 C13          2.8380     0.0540     1.9310 c6         1 YKE       0.004400
     14 C14          3.9010    -0.3340     0.9290 cc         1 YKE       0.435800
     15 N15          5.2060     0.0170     0.9710 nd         1 YKE      -0.584100
     16 N16          3.6430    -1.1260    -0.1910 na         1 YKE      -0.287600
     17 C17          4.8220    -1.2650    -0.8660 ca         1 YKE      -0.144200
     18 C18          5.7540    -0.5760    -0.1600 ca         1 YKE       0.097400
     19 C19          7.0740    -0.5420    -0.6210 ca         1 YKE      -0.102000
     20 C20          7.3590    -1.2400    -1.8140 ca         1 YKE       0.304900
     21 N21          6.4220    -1.9320    -2.5240 nb         1 YKE      -0.659000
     22 C22          5.1480    -1.9460    -2.0500 ca         1 YKE       0.353900
     23 N23         -1.8200     0.8290     0.0520 ns         1 YKE      -0.415100
     24 C24         -2.6010    -0.2960    -0.1420 c          1 YKE       0.614700
     25 C25         -4.0350    -0.0120    -0.5470 ca         1 YKE      -0.132600
     26 O26         -2.1420    -1.4280    -0.1040 o          1 YKE      -0.579100
     27 C27         -4.2870     1.0740    -1.4190 ca         1 YKE      -0.081000
     28 C28         -6.6580     0.5620    -1.4390 ca         1 YKE      -0.059000
     29 C29         -5.5850     1.3580    -1.8590 ca         1 YKE      -0.114000
     30 C30         -5.1370    -0.8090    -0.1090 ca         1 YKE      -0.046000
     31 C31         -6.4580    -0.5210    -0.5660 ca         1 YKE       0.261000
     32 N32         -7.5370    -1.2470    -0.1830 nb         1 YKE      -0.661000
     33 C33         -7.3610    -2.2760     0.6730 ca         1 YKE       0.355900
     34 C34         -6.1070    -2.6170     1.1930 ca         1 YKE      -0.164000
     35 C35         -4.9800    -1.8780     0.8060 ca         1 YKE      -0.054000
     36 H1           3.0140     4.7130    -0.9000 ha         1 YKE       0.114000
     37 H2           0.6870     4.9920    -1.7550 ha         1 YKE       0.111000
     38 H4           3.6140     2.7210     0.5040 ha         1 YKE       0.131000
     39 H3          -1.0690     3.2880    -1.2220 ha         1 YKE       0.112000
     40 H23         -2.3020     1.6890    -0.1710 hn         1 YKE       0.330500
     41 H10         -0.9120    -1.4320     1.9640 ha         1 YKE       0.192000
     42 H11          0.8900    -2.5840     3.2780 ha         1 YKE       0.191000
     43 H12          3.1800    -1.6870     3.3190 ha         1 YKE       0.194000
     44 H13          3.2600     0.7820     2.6370 hc         1 YKE       0.115700
     45 H16          2.7390    -1.5080    -0.4390 hn         1 YKE       0.371000
     46 H22          4.4030    -2.5000    -2.6200 h4         1 YKE       0.024100
     47 H19          7.8500    -0.0020    -0.0860 ha         1 YKE       0.136000
     48 H20          8.3710    -1.2470    -2.2190 h4         1 YKE       0.020100
     49 H27         -3.4720     1.6900    -1.7950 ha         1 YKE       0.118000
     50 H29         -5.7610     2.1900    -2.5380 ha         1 YKE       0.122000
     51 H28         -7.6620     0.7880    -1.7890 ha         1 YKE       0.136000
     52 H35         -4.0190    -2.1410     1.2350 ha         1 YKE       0.134000
     53 H33         -8.2520    -2.8330     0.9570 h4         1 YKE       0.021100
     54 H34         -6.0160    -3.4440     1.8910 ha         1 YKE       0.126000
@<TRIPOS>BOND
     1     1     2 ar  
     2     1     4 ar  
     3     1    36 1   
     4     2     3 ar  
     5     2    37 1   
     6     3     6 ar  
     7     3    39 1   
     8     4     5 ar  
     9     4    38 1   
    10     5     6 ar  
    11     5     8 2   
    12     6     7 2   
    13     7     9 1   
    14     7    23 1   
    15     8     9 1   
    16     8    13 1   
    17     9    10 2   
    18    10    11 1   
    19    10    41 1   
    20    11    12 2   
    21    11    42 1   
    22    12    13 1   
    23    12    43 1   
    24    13    14 1   
    25    13    44 1   
    26    14    15 2   
    27    14    16 1   
    28    15    18 1   
    29    16    17 1   
    30    16    45 1   
    31    17    18 ar  
    32    17    22 ar  
    33    18    19 ar  
    34    19    20 ar  
    35    19    47 1   
    36    20    21 ar  
    37    20    48 1   
    38    21    22 ar  
    39    22    46 1   
    40    23    24 1   
    41    23    40 1   
    42    24    25 1   
    43    24    26 2   
    44    25    27 ar  
    45    25    30 ar  
    46    27    29 ar  
    47    27    49 1   
    48    28    29 ar  
    49    28    31 ar  
    50    28    51 1   
    51    29    50 1   
    52    30    31 ar  
    53    30    35 ar  
    54    31    32 ar  
    55    32    33 ar  
    56    33    34 ar  
    57    33    53 1   
    58    34    35 ar  
    59    34    54 1   
    60    35    52 1   
@<TRIPOS>SUBSTRUCTURE
     1 YKE         1 TEMP              0 ****  ****    0 ROOT
