@<TRIPOS>MOLECULE
YKE
   54    60     1     0     0
SMALL
bcc


@<TRIPOS>ATOM
      1 C1           2.4110     3.7330    -1.0200 ca         1 YKE      -0.126000
      2 C2           1.0660     3.9710    -1.4750 ca         1 YKE      -0.117000
      3 C3           0.0250     3.2050    -1.0620 ca         1 YKE      -0.113000
      4 C4           2.7010     2.7270    -0.1570 ca         1 YKE      -0.103000
      5 C5           1.6430     1.8870     0.3090 ca         1 YKE      -0.024000
      6 C6           0.2760     2.1320    -0.1560 ca         1 YKE      -0.047000
      7 C7          -0.5610     1.2070     0.4170 cc         1 YKE       0.029600
      8 C8           1.6230     0.8110     1.1570 cc         1 YKE      -0.126200
      9 C9           0.2500     0.3620     1.2530 cc         1 YKE      -0.065000
     10 C10         -0.0810    -0.6890     2.0450 cf         1 YKE       0.003000
     11 C11          0.9330    -1.3800     2.8030 cf         1 YKE      -0.164000
     12 C12          2.2250    -1.0200     2.7390 c2         1 YKE      -0.116200
     13 C13          2.7180     0.1180     1.8960 c6         1 YKE       0.004400
     14 C14          3.7850    -0.3710     0.9590 cc         1 YKE       0.435800
     15 N15          5.0140     0.0710     0.9300 nd         1 YKE      -0.584100
     16 N16          3.5360    -1.3220     0.0270 na         1 YKE      -0.237300
     17 C17          4.6990    -1.5130    -0.6680 ca         1 YKE      -0.209500
     18 C18          5.6160    -0.6270    -0.0850 ca         1 YKE       0.097400
     19 C19          6.9130    -0.5900    -0.5880 ca         1 YKE      -0.185300
     20 C20          7.1920    -1.4450    -1.6370 ca         1 YKE       0.370200
     21 N21          6.3080    -2.2900    -2.1880 nb         1 YKE      -0.659000
     22 C22          5.0720    -2.3350    -1.7220 ca         1 YKE       0.419200
     23 N23         -1.9520     1.1280     0.2640 ns         1 YKE      -0.482100
     24 C24         -2.5680     0.1200    -0.3940 c          1 YKE       0.681700
     25 C25         -4.0490     0.2850    -0.5310 ca         1 YKE      -0.132600
     26 O26         -1.9760    -0.8400    -0.8550 o          1 YKE      -0.579100
     27 C27         -4.5480     1.4670    -1.0200 ca         1 YKE      -0.099000
     28 C28         -6.7990     0.6240    -0.9620 ca         1 YKE      -0.142300
     29 C29         -5.9270     1.6360    -1.2440 ca         1 YKE      -0.132000
     30 C30         -4.9350    -0.7880    -0.2320 ca         1 YKE      -0.111300
     31 C31         -6.3260    -0.6040    -0.4450 ca         1 YKE       0.391600
     32 N32         -7.2410    -1.5640    -0.1680 nb         1 YKE      -0.661000
     33 C33         -6.8220    -2.6980     0.3240 ca         1 YKE       0.421200
     34 C34         -5.4680    -2.9800     0.5890 ca         1 YKE      -0.247300
     35 C35         -4.5270    -2.0300     0.3100 ca         1 YKE      -0.072000
     36 H1           3.1990     4.3810    -1.3800 ha         1 YKE       0.132000
     37 H2           0.8950     4.7870    -2.1660 ha         1 YKE       0.129000
     38 H4           3.7170     2.5590     0.1780 ha         1 YKE       0.149000
     39 H3          -0.9810     3.3960    -1.4150 ha         1 YKE       0.130000
     40 H23         -2.5210     1.8590     0.6640 hn         1 YKE       0.330500
     41 H10         -1.1070    -1.0260     2.1260 ha         1 YKE       0.142000
     42 H11          0.6320    -2.2060     3.4320 ha         1 YKE       0.141000
     43 H12          2.9700    -1.5560     3.3130 ha         1 YKE       0.144000
     44 H13          3.2240     0.8200     2.5720 hc         1 YKE       0.115700
     45 H16          2.6560    -1.7890    -0.1300 hn         1 YKE       0.320700
     46 H22          4.3780    -3.0270    -2.1850 h4         1 YKE       0.024100
     47 H19          7.6700     0.0710    -0.1860 ha         1 YKE       0.154000
     48 H20          8.1870    -1.4580    -2.0670 h4         1 YKE       0.020100
     49 H27         -3.8760     2.2810    -1.2640 ha         1 YKE       0.136000
     50 H29         -6.2880     2.5740    -1.6430 ha         1 YKE       0.140000
     51 H28         -7.8630     0.7380    -1.1250 ha         1 YKE       0.154000
     52 H35         -3.4850    -2.2340     0.5040 ha         1 YKE       0.152000
     53 H33         -7.5780    -3.4470     0.5370 h4         1 YKE       0.021100
     54 H34         -5.1880    -3.9370     1.0070 ha         1 YKE       0.144000
@<TRIPOS>BOND
     1     1     2 ar  
     2     1     4 ar  
     3     1    36 1   
     4     2     3 ar  
     5     2    37 1   
     6     3     6 ar  
     7     3    39 1   
     8     4     5 ar  
     9     4    38 1   
    10     5     6 ar  
    11     5     8 2   
    12     6     7 2   
    13     7     9 1   
    14     7    23 1   
    15     8     9 1   
    16     8    13 1   
    17     9    10 2   
    18    10    11 1   
    19    10    41 1   
    20    11    12 2   
    21    11    42 1   
    22    12    13 1   
    23    12    43 1   
    24    13    14 1   
    25    13    44 1   
    26    14    15 2   
    27    14    16 1   
    28    15    18 1   
    29    16    17 1   
    30    16    45 1   
    31    17    18 ar  
    32    17    22 ar  
    33    18    19 ar  
    34    19    20 ar  
    35    19    47 1   
    36    20    21 ar  
    37    20    48 1   
    38    21    22 ar  
    39    22    46 1   
    40    23    24 1   
    41    23    40 1   
    42    24    25 1   
    43    24    26 2   
    44    25    27 ar  
    45    25    30 ar  
    46    27    29 ar  
    47    27    49 1   
    48    28    29 ar  
    49    28    31 ar  
    50    28    51 1   
    51    29    50 1   
    52    30    31 ar  
    53    30    35 ar  
    54    31    32 ar  
    55    32    33 ar  
    56    33    34 ar  
    57    33    53 1   
    58    34    35 ar  
    59    34    54 1   
    60    35    52 1   
@<TRIPOS>SUBSTRUCTURE
     1 YKE         1 TEMP              0 ****  ****    0 ROOT
