@<TRIPOS>MOLECULE
YKF
   52    54     1     0     0
SMALL
abcg2


@<TRIPOS>ATOM
      1 C1          -8.1870    13.6940   -17.1280 c3         1 YKF       0.163900
      2 C10         -0.9030    12.2100   -12.5160 ca         1 YKF      -0.085000
      3 C11          0.0270    13.2350   -12.5830 ca         1 YKF      -0.098000
      4 C12          0.9960    13.2450   -13.5760 ca         1 YKF      -0.100000
      5 C13          1.0490    12.2000   -14.4860 ca         1 YKF       0.105100
      6 C14          1.7620    12.0430   -16.7370 ca         1 YKF       0.126100
      7 C15          2.7590    11.4840   -17.5270 ca         1 YKF      -0.149000
      8 C16          2.5510    11.3380   -18.8910 ca         1 YKF      -0.084000
      9 C17          1.3530    11.7370   -19.4680 ca         1 YKF      -0.134000
     10 C18          0.3640    12.2920   -18.6680 ca         1 YKF      -0.084000
     11 C19          0.5600    12.4520   -17.3030 ca         1 YKF      -0.149000
     12 C2          -8.0370    14.5210   -14.9430 c          1 YKF       0.638100
     13 C20          0.1500    11.1460   -14.4070 ca         1 YKF      -0.104000
     14 C21         -4.6720    11.9320   -12.4650 ca         1 YKF      -0.084300
     15 C22         -4.8950    11.2000   -11.1770 c3         1 YKF      -0.046800
     16 C23         -5.3440    13.1170   -12.7370 ca         1 YKF      -0.109000
     17 C3          -5.2300    16.2030   -14.4840 c          1 YKF       0.627900
     18 C4          -5.1230    13.8180   -13.9150 ca         1 YKF      -0.062000
     19 C5          -4.2230    13.3320   -14.8530 ca         1 YKF      -0.074000
     20 C6          -3.5500    12.1500   -14.5980 ca         1 YKF      -0.114000
     21 C7          -3.7580    11.4570   -13.4110 ca         1 YKF      -0.035000
     22 C8          -1.7600     9.9920   -13.3350 c          1 YKF       0.619700
     23 C9          -0.8410    11.1660   -13.4340 ca         1 YKF      -0.133600
     24 N1          -7.1900    15.0380   -14.0010 ns         1 YKF      -0.366500
     25 N2          -5.8340    15.0220   -14.1590 n          1 YKF      -0.110000
     26 N3          -3.0800    10.2480   -13.1580 ns         1 YKF      -0.166000
     27 O1          -7.3980    14.2190   -16.0610 os         1 YKF      -0.432100
     28 O2          -9.2220    14.3930   -14.7500 o          1 YKF      -0.515000
     29 O3          -4.0380    16.3590   -14.5910 o          1 YKF      -0.558100
     30 O4          -1.3250     8.8540   -13.3730 o          1 YKF      -0.577100
     31 H3          -7.4900    13.4870   -17.9350 h1         1 YKF       0.053367
     32 H2          -8.6880    12.7710   -16.8380 h1         1 YKF       0.053367
     33 H1          -8.9280    14.4160   -17.4670 h1         1 YKF       0.053367
     34 H9          -1.6570    12.2200   -11.7390 ha         1 YKF       0.124000
     35 H10         -0.0070    14.0420   -11.8630 ha         1 YKF       0.122000
     36 H11          1.7120    14.0550   -13.6410 ha         1 YKF       0.133000
     37 H12          3.6910    11.1690   -17.0740 ha         1 YKF       0.127000
     38 H13          3.3310    10.9030   -19.5020 ha         1 YKF       0.114000
     39 H14          1.1920    11.6180   -20.5310 ha         1 YKF       0.115000
     40 H15         -0.5720    12.6140   -19.1060 ha         1 YKF       0.114000
     41 H16         -0.2190    12.8990   -16.6970 ha         1 YKF       0.127000
     42 H17          0.2110    10.3200   -15.1060 ha         1 YKF       0.141000
     43 H19         -3.9540    11.0430   -10.6460 hc         1 YKF       0.047367
     44 H20         -5.5640    11.7550   -10.5220 hc         1 YKF       0.047367
     45 H18         -5.3380    10.2150   -11.3410 hc         1 YKF       0.047367
     46 H21         -6.0430    13.5010   -12.0040 ha         1 YKF       0.116000
     47 H5          -5.9740    17.0000   -14.6300 h5         1 YKF       0.035200
     48 H6          -4.0640    13.8470   -15.7900 ha         1 YKF       0.136000
     49 H7          -2.8700    11.7550   -15.3420 ha         1 YKF       0.129000
     50 H4          -7.5560    15.1740   -13.0690 hn         1 YKF       0.348500
     51 H8          -3.6490     9.4370   -12.9510 hn         1 YKF       0.159000
     52 O5           2.0520    12.2080   -15.4130 os         1 YKF      -0.253200
@<TRIPOS>BOND
     1     1    27 1   
     2     1    31 1   
     3     1    32 1   
     4     1    33 1   
     5     2     3 ar  
     6     2    23 ar  
     7     2    34 1   
     8     3     4 ar  
     9     3    35 1   
    10     4     5 ar  
    11     4    36 1   
    12     5    13 ar  
    13     5    52 1   
    14     6     7 ar  
    15     6    11 ar  
    16     6    52 1   
    17     7     8 ar  
    18     7    37 1   
    19     8     9 ar  
    20     8    38 1   
    21     9    10 ar  
    22     9    39 1   
    23    10    11 ar  
    24    10    40 1   
    25    11    41 1   
    26    12    24 1   
    27    12    27 1   
    28    12    28 2   
    29    13    23 ar  
    30    13    42 1   
    31    14    15 1   
    32    14    16 ar  
    33    14    21 ar  
    34    15    43 1   
    35    15    44 1   
    36    15    45 1   
    37    16    18 ar  
    38    16    46 1   
    39    17    25 1   
    40    17    29 2   
    41    17    47 1   
    42    18    19 ar  
    43    18    25 1   
    44    19    20 ar  
    45    19    48 1   
    46    20    21 ar  
    47    20    49 1   
    48    21    26 1   
    49    22    23 1   
    50    22    26 1   
    51    22    30 2   
    52    24    25 1   
    53    24    50 1   
    54    26    51 1   
@<TRIPOS>SUBSTRUCTURE
     1 YKF         1 TEMP              0 ****  ****    0 ROOT
