@<TRIPOS>MOLECULE
YKF
   52    54     1     0     0
SMALL
No Charge or Current Charge


@<TRIPOS>ATOM
      1 C1          -8.4830    13.3130   -16.4230 c3         1 YKF       0.163900
      2 C10         -0.9120    12.4740   -12.9980 ca         1 YKF      -0.085000
      3 C11          0.1000    13.4480   -12.9500 ca         1 YKF      -0.098000
      4 C12          1.2060    13.3600   -13.8100 ca         1 YKF      -0.100000
      5 C13          1.3020    12.2960   -14.7190 ca         1 YKF       0.105100
      6 C14          2.3310    11.8110   -16.8530 ca         1 YKF       0.126100
      7 C15          3.3780    11.0410   -17.3860 ca         1 YKF      -0.149000
      8 C16          3.3340    10.6200   -18.7270 ca         1 YKF      -0.084000
      9 C17          2.2430    10.9780   -19.5380 ca         1 YKF      -0.134000
     10 C18          1.1990    11.7590   -19.0120 ca         1 YKF      -0.084000
     11 C19          1.2440    12.1800   -17.6710 ca         1 YKF      -0.149000
     12 C2          -8.4190    14.4580   -14.3070 c          1 YKF       0.638100
     13 C20          0.2970    11.3100   -14.7580 ca         1 YKF      -0.104000
     14 C21         -5.0080    11.9950   -12.6890 ca         1 YKF      -0.084300
     15 C22         -5.3630    10.9320   -11.6530 c3         1 YKF      -0.046800
     16 C23         -5.7620    13.1840   -12.7480 ca         1 YKF      -0.109000
     17 C3          -5.7010    16.7040   -13.7780 c          1 YKF       0.627900
     18 C4          -5.4580    14.1870   -13.6900 ca         1 YKF      -0.062000
     19 C5          -4.3950    13.9820   -14.5890 ca         1 YKF      -0.074000
     20 C6          -3.6390    12.8010   -14.5380 ca         1 YKF      -0.114000
     21 C7          -3.9280    11.8070   -13.5800 ca         1 YKF      -0.035000
     22 C8          -1.8980    10.3140   -13.9830 c          1 YKF       0.619700
     23 C9          -0.8340    11.3970   -13.9150 ca         1 YKF      -0.133600
     24 N1          -7.6790    15.3170   -13.5150 ns         1 YKF      -0.366500
     25 N2          -6.2480    15.3930   -13.7550 n          1 YKF      -0.110000
     26 N3          -3.1760    10.6020   -13.5300 ns         1 YKF      -0.166000
     27 O1          -7.8170    14.2040   -15.5120 os         1 YKF      -0.432100
     28 O2          -9.5070    14.0210   -13.9650 o          1 YKF      -0.515000
     29 O3          -4.4960    16.9440   -13.8280 o          1 YKF      -0.558100
     30 O4          -1.6140     9.1740   -14.3350 o          1 YKF      -0.577100
     31 H3          -7.8940    13.1950   -17.3410 h1         1 YKF       0.053367
     32 H2          -8.6150    12.3200   -15.9740 h1         1 YKF       0.053367
     33 H1          -9.4710    13.7030   -16.7010 h1         1 YKF       0.053367
     34 H9          -1.7440    12.5560   -12.3020 ha         1 YKF       0.124000
     35 H10          0.0290    14.2700   -12.2400 ha         1 YKF       0.122000
     36 H11          1.9890    14.1130   -13.7720 ha         1 YKF       0.133000
     37 H12          4.2210    10.7670   -16.7570 ha         1 YKF       0.127000
     38 H13          4.1430    10.0190   -19.1360 ha         1 YKF       0.114000
     39 H14          2.2080    10.6530   -20.5760 ha         1 YKF       0.115000
     40 H15          0.3590    12.0420   -19.6440 ha         1 YKF       0.114000
     41 H16          0.4400    12.7940   -17.2730 ha         1 YKF       0.127000
     42 H17          0.3920    10.4770   -15.4520 ha         1 YKF       0.141000
     43 H19         -4.5080    10.7160   -11.0010 hc         1 YKF       0.047367
     44 H20         -6.1920    11.2480   -11.0100 hc         1 YKF       0.047367
     45 H18         -5.6630     9.9950   -12.1370 hc         1 YKF       0.047367
     46 H21         -6.5850    13.3280   -12.0530 ha         1 YKF       0.116000
     47 H5          -6.4800    17.4890   -13.7400 h5         1 YKF       0.035200
     48 H6          -4.1620    14.7320   -15.3420 ha         1 YKF       0.136000
     49 H7          -2.8360    12.6620   -15.2580 ha         1 YKF       0.129000
     50 H4          -8.0080    15.4680   -12.5680 hn         1 YKF       0.348500
     51 H8          -3.7450     9.7810   -13.3670 hn         1 YKF       0.159000
     52 O5           2.4050    12.2190   -15.5400 os         1 YKF      -0.253200
@<TRIPOS>BOND
     1     1    27 1   
     2     1    31 1   
     3     1    32 1   
     4     1    33 1   
     5     2     3 ar  
     6     2    23 ar  
     7     2    34 1   
     8     3     4 ar  
     9     3    35 1   
    10     4     5 ar  
    11     4    36 1   
    12     5    13 ar  
    13     5    52 1   
    14     6     7 ar  
    15     6    11 ar  
    16     6    52 1   
    17     7     8 ar  
    18     7    37 1   
    19     8     9 ar  
    20     8    38 1   
    21     9    10 ar  
    22     9    39 1   
    23    10    11 ar  
    24    10    40 1   
    25    11    41 1   
    26    12    24 1   
    27    12    27 1   
    28    12    28 2   
    29    13    23 ar  
    30    13    42 1   
    31    14    15 1   
    32    14    16 ar  
    33    14    21 ar  
    34    15    43 1   
    35    15    44 1   
    36    15    45 1   
    37    16    18 ar  
    38    16    46 1   
    39    17    25 1   
    40    17    29 2   
    41    17    47 1   
    42    18    19 ar  
    43    18    25 1   
    44    19    20 ar  
    45    19    48 1   
    46    20    21 ar  
    47    20    49 1   
    48    21    26 1   
    49    22    23 1   
    50    22    26 1   
    51    22    30 2   
    52    24    25 1   
    53    24    50 1   
    54    26    51 1   
@<TRIPOS>SUBSTRUCTURE
     1 YKF         1 TEMP              0 ****  ****    0 ROOT
