@<TRIPOS>MOLECULE
YKG
   26    27     1     0     0
SMALL
bcc


@<TRIPOS>ATOM
      1 C01          5.3070    -0.2540     0.2280 c3         1 YKG      -0.031800
      2 C02          3.8190    -0.3010     0.0690 ca         1 YKG      -0.086300
      3 C03          3.0810     0.8700    -0.0910 ca         1 YKG      -0.164000
      4 C04          1.7030     0.8450    -0.2150 ca         1 YKG       0.042100
      5 C06          0.9620    -0.3580    -0.1670 ca         1 YKG      -0.066800
      6 C07         -0.4920    -0.5610    -0.2120 cc         1 YKG       0.114600
      7 C08         -1.4920     0.5490    -0.1210 c3         1 YKG      -0.209400
      8 C13         -0.9450    -1.8340    -0.3100 cd         1 YKG      -0.286200
      9 C14         -0.0970    -2.9890    -0.2860 c          1 YKG       0.746800
     10 C17          1.7580    -1.5160    -0.0660 ca         1 YKG       0.150100
     11 C18          3.1370    -1.5010     0.0650 ca         1 YKG      -0.160000
     12 O10         -3.8210    -0.7750    -0.7430 o          1 YKG      -0.919167
     13 O11         -3.2060    -0.4780     1.7350 o          1 YKG      -0.919167
     14 O12         -3.9050     1.5580     0.3280 o          1 YKG      -0.919167
     15 O15         -0.4450    -4.1430    -0.3750 o          1 YKG      -0.621500
     16 O16          1.2230    -2.7560    -0.0950 os         1 YKG      -0.377200
     17 P09         -3.2770     0.1600     0.3480 p5         1 YKG       1.128700
     18 BR05         0.9540     2.5530    -0.5600 br         1 YKG      -0.093100
     19 H1           5.5830    -0.3160     1.2830 hc         1 YKG       0.027033
     20 H2           5.7860    -1.0880    -0.2830 hc         1 YKG       0.027033
     21 H3           5.7220     0.6720    -0.1670 hc         1 YKG       0.027033
     22 H4           3.6100     1.8140    -0.1340 ha         1 YKG       0.123000
     23 H5          -1.1460     1.2720     0.6200 hc         1 YKG       0.045700
     24 H6          -1.5020     1.0890    -1.0730 hc         1 YKG       0.045700
     25 H7          -2.0060    -2.0120    -0.4240 ha         1 YKG       0.245000
     26 H8           3.6670    -2.4420     0.1520 ha         1 YKG       0.131000
@<TRIPOS>BOND
     1     1     2 1   
     2     1    19 1   
     3     1    20 1   
     4     1    21 1   
     5     2     3 ar  
     6     2    11 ar  
     7     3     4 ar  
     8     3    22 1   
     9     4     5 ar  
    10     4    18 1   
    11     5     6 1   
    12     5    10 ar  
    13     6     7 1   
    14     6     8 2   
    15     7    17 1   
    16     7    23 1   
    17     7    24 1   
    18     8     9 1   
    19     8    25 1   
    20     9    15 2   
    21     9    16 1   
    22    10    11 ar  
    23    10    16 1   
    24    11    26 1   
    25    12    17 1   
    26    13    17 1   
    27    14    17 1   
@<TRIPOS>SUBSTRUCTURE
     1 YKG         1 TEMP              0 ****  ****    0 ROOT
