@<TRIPOS>MOLECULE
YKG
   26    27     1     0     0
SMALL
No Charge or Current Charge


@<TRIPOS>ATOM
      1 C01          5.3580    -0.2190     0.2090 c3         1 YKG      -0.031800
      2 C02          3.8440    -0.2900     0.0770 ca         1 YKG      -0.086300
      3 C03          3.0880     0.8750    -0.0910 ca         1 YKG      -0.146000
      4 C04          1.6860     0.8310    -0.2150 ca         1 YKG       0.042100
      5 C06          0.9840    -0.4190    -0.1480 ca         1 YKG      -0.066800
      6 C07         -0.5000    -0.5760    -0.2150 cc         1 YKG       0.114600
      7 C08         -1.5040     0.5500    -0.1090 c3         1 YKG      -0.367200
      8 C13         -0.9290    -1.8820    -0.3430 cd         1 YKG      -0.336200
      9 C14         -0.0790    -3.0660    -0.2890 c          1 YKG       0.671300
     10 C17          1.7860    -1.5850    -0.0240 ca         1 YKG       0.150100
     11 C18          3.1820    -1.5210     0.0980 ca         1 YKG      -0.142000
     12 O10         -3.9180    -0.4460    -0.8300 o          1 YKG      -0.919167
     13 O11         -3.3410    -0.5590     1.5480 o          1 YKG      -0.919167
     14 O12         -3.9170     1.5880     0.5260 o          1 YKG      -0.919167
     15 O15         -0.5290    -4.1990    -0.3760 o          1 YKG      -0.546000
     16 O16          1.2370    -2.8360    -0.0640 os         1 YKG      -0.377200
     17 P09         -3.2690     0.2640     0.3080 p5         1 YKG       1.286500
     18 Br05         0.8940     2.5560    -0.5450 br         1 YKG      -0.093100
     19 H1           5.6520    -0.0690     1.2540 hc         1 YKG       0.027033
     20 H2           5.8350    -1.1420    -0.1440 hc         1 YKG       0.027033
     21 H3           5.7710     0.6100    -0.3780 hc         1 YKG       0.027033
     22 H4           3.5960     1.8360    -0.1390 ha         1 YKG       0.105000
     23 H5          -1.1970     1.2290     0.6920 hc         1 YKG       0.045700
     24 H6          -1.5310     1.1130    -1.0480 hc         1 YKG       0.045700
     25 H7          -1.9720    -2.1430    -0.4450 ha         1 YKG       0.295000
     26 H8           3.7510    -2.4420     0.1970 ha         1 YKG       0.113000
@<TRIPOS>BOND
     1     1     2 1   
     2     1    19 1   
     3     1    20 1   
     4     1    21 1   
     5     2     3 ar  
     6     2    11 ar  
     7     3     4 ar  
     8     3    22 1   
     9     4     5 ar  
    10     4    18 1   
    11     5     6 1   
    12     5    10 ar  
    13     6     7 1   
    14     6     8 2   
    15     7    17 1   
    16     7    23 1   
    17     7    24 1   
    18     8     9 1   
    19     8    25 1   
    20     9    15 2   
    21     9    16 1   
    22    10    11 ar  
    23    10    16 1   
    24    11    26 1   
    25    12    17 1   
    26    13    17 1   
    27    14    17 1   
@<TRIPOS>SUBSTRUCTURE
     1 YKG         1 TEMP              0 ****  ****    0 ROOT
