@<TRIPOS>MOLECULE
YKH
   59    63     1     0     0
SMALL
abcg2


@<TRIPOS>ATOM
      1 C13        -22.3050   -12.1550    12.2240 ca         1 YKH      -0.055200
      2 O25        -26.5490   -11.7160    14.0070 os         1 YKH      -0.405100
      3 C26        -25.3020   -11.2350    14.1000 c          1 YKH       0.690100
      4 C29        -21.1300   -14.6230    12.5100 ca         1 YKH      -0.169000
      5 C31        -21.7020   -12.7740    11.1070 ca         1 YKH      -0.087800
      6 C24        -27.6850   -13.8810    13.8730 cy         1 YKH      -0.077900
      7 C30        -21.1000   -14.0280    11.2670 ca         1 YKH      -0.062000
      8 C14        -22.3390   -12.7490    13.4940 ca         1 YKH      -0.135300
      9 C15        -23.0310   -12.0510    14.6460 c3         1 YKH       0.189000
     10 C01        -20.2370   -14.3770     4.4040 c3         1 YKH       0.163900
     11 C03        -20.3800   -12.8280     6.1740 ca         1 YKH       0.532300
     12 C05        -21.6090   -13.3490     8.0230 ca         1 YKH       0.316900
     13 C06        -21.3310   -12.1490     8.6520 ca         1 YKH       0.016200
     14 C07        -21.8420   -11.8750     9.9980 cc         1 YKH      -0.141400
     15 C08        -22.5050   -10.7650    10.4760 cd         1 YKH      -0.053300
     16 C09        -22.9930    -9.4940     9.8190 c          1 YKH       0.721200
     17 C16        -22.5530   -12.4870    16.0240 c3         1 YKH      -0.094100
     18 C18        -25.1460   -13.4820    14.5640 c5         1 YKH       0.087000
     19 C19        -26.6030   -13.0430    14.5550 cy         1 YKH       0.137000
     20 C20        -27.4360   -13.0650    15.8480 cy         1 YKH      -0.077900
     21 C21        -28.6550   -13.5060    15.0110 cy         1 YKH      -0.079700
     22 C22        -29.5380   -14.5960    15.5730 c3         1 YKH       0.160800
     23 C28        -21.7440   -13.9910    13.6040 ca         1 YKH      -0.110000
     24 C32        -20.5070   -11.2510     7.9570 ca         1 YKH      -0.107000
     25 C33        -20.0220   -11.5720     6.7110 ca         1 YKH       0.060100
     26 N04        -21.1410   -13.6740     6.8150 nb         1 YKH      -0.748000
     27 N12        -22.7690   -10.9480    11.8060 na         1 YKH      -0.191700
     28 N17        -24.4740   -12.2040    14.5360 n          1 YKH      -0.443800
     29 N23        -30.4840   -15.0550    14.5670 n8         1 YKH      -0.993200
     30 O10        -22.8650    -9.4090     8.5870 o          1 YKH      -0.696000
     31 O11        -23.4890    -8.6590    10.6010 o          1 YKH      -0.696000
     32 O34        -19.2270   -10.7790     5.9680 oh         1 YKH      -0.528100
     33 H291       -20.6700   -15.5920    12.6550 ha         1 YKH       0.092000
     34 H241       -27.9400   -13.6110    12.8490 hc         1 YKH       0.064200
     35 H242       -27.4250   -14.9420    13.9000 hc         1 YKH       0.064200
     36 H301       -20.6160   -14.5220    10.4330 ha         1 YKH       0.109000
     37 H151       -22.8360   -10.9790    14.5650 h1         1 YKH       0.084700
     38 H012       -19.7550   -14.4140     3.4300 h1         1 YKH       0.032367
     39 H011       -19.8720   -15.2050     5.0150 h1         1 YKH       0.032367
     40 H013       -21.3150   -14.4900     4.2760 h1         1 YKH       0.032367
     41 H051       -22.2460   -14.0850     8.5010 h4         1 YKH       0.016100
     42 H162       -23.0590   -11.9000    16.7900 hc         1 YKH       0.037033
     43 H161       -22.7480   -13.5400    16.2250 hc         1 YKH       0.037033
     44 H163       -21.4810   -12.3220    16.1210 hc         1 YKH       0.037033
     45 H181       -24.8950   -14.0880    13.6860 h1         1 YKH       0.061200
     46 H182       -24.9050   -14.0590    15.4560 h1         1 YKH       0.061200
     47 H201       -27.0970   -13.8600    16.5160 hc         1 YKH       0.064200
     48 H202       -27.4990   -12.1340    16.4110 hc         1 YKH       0.064200
     49 H211       -29.2640   -12.6410    14.7310 hc         1 YKH       0.068700
     50 H221       -28.9100   -15.4430    15.8640 h1         1 YKH       0.024700
     51 H222       -30.0130   -14.2310    16.4960 h1         1 YKH       0.024700
     52 H281       -21.7370   -14.5020    14.5590 ha         1 YKH       0.088000
     53 H321       -20.2470   -10.3010     8.4070 ha         1 YKH       0.138000
     54 H121       -23.3000   -10.2800    12.3450 hn         1 YKH       0.389000
     55 H232       -31.0300   -15.8220    14.9380 hn         1 YKH       0.390000
     56 H1         -31.1480   -14.3160    14.3690 hn         1 YKH       0.390000
     57 H341       -19.0580    -9.9500     6.4310 ho         1 YKH       0.459000
     58 O02        -19.8980   -13.1180     4.9600 os         1 YKH      -0.455300
     59 O27        -25.0320   -10.0880    13.8140 o          1 YKH      -0.530000
@<TRIPOS>BOND
     1     1     5 ar  
     2     1     8 ar  
     3     1    27 1   
     4     2     3 1   
     5     2    19 1   
     6     3    28 1   
     7     3    59 2   
     8     4     7 ar  
     9     4    23 ar  
    10     4    33 1   
    11     5     7 ar  
    12     5    14 1   
    13     6    19 1   
    14     6    21 1   
    15     6    34 1   
    16     6    35 1   
    17     7    36 1   
    18     8     9 1   
    19     8    23 ar  
    20     9    17 1   
    21     9    28 1   
    22     9    37 1   
    23    10    38 1   
    24    10    39 1   
    25    10    40 1   
    26    10    58 1   
    27    11    25 ar  
    28    11    26 ar  
    29    11    58 1   
    30    12    13 ar  
    31    12    26 ar  
    32    12    41 1   
    33    13    14 1   
    34    13    24 ar  
    35    14    15 2   
    36    15    16 1   
    37    15    27 1   
    38    16    30 1   
    39    16    31 1   
    40    17    42 1   
    41    17    43 1   
    42    17    44 1   
    43    18    19 1   
    44    18    28 1   
    45    18    45 1   
    46    18    46 1   
    47    19    20 1   
    48    20    21 1   
    49    20    47 1   
    50    20    48 1   
    51    21    22 1   
    52    21    49 1   
    53    22    29 1   
    54    22    50 1   
    55    22    51 1   
    56    23    52 1   
    57    24    25 ar  
    58    24    53 1   
    59    25    32 1   
    60    27    54 1   
    61    29    55 1   
    62    29    56 1   
    63    32    57 1   
@<TRIPOS>SUBSTRUCTURE
     1 YKH         1 TEMP              0 ****  ****    0 ROOT
