@<TRIPOS>MOLECULE
YKH
   59    63     1     0     0
SMALL
No Charge or Current Charge


@<TRIPOS>ATOM
      1 C13        -22.3040   -12.1840    12.1000 ca         1 YKH      -0.055200
      2 O25        -26.6740   -12.1310    13.8780 os         1 YKH      -0.405100
      3 C26        -25.4580   -11.5360    13.8770 c          1 YKH       0.690100
      4 C29        -20.9100   -14.5650    12.4940 ca         1 YKH      -0.169000
      5 C31        -21.6030   -12.7570    11.0750 ca         1 YKH      -0.087800
      6 C24        -27.7440   -14.3750    14.2750 cy         1 YKH      -0.077900
      7 C30        -20.8860   -13.9480    11.2290 ca         1 YKH      -0.062000
      8 C14        -22.3360   -12.7620    13.3860 ca         1 YKH      -0.135300
      9 C15        -23.1180   -12.0900    14.5260 c3         1 YKH       0.189000
     10 C01        -20.0580   -14.0550     4.0620 c3         1 YKH       0.163900
     11 C03        -20.1650   -12.6610     6.0890 ca         1 YKH       0.532300
     12 C05        -21.5920   -13.2400     7.8250 ca         1 YKH       0.316900
     13 C06        -21.2080   -12.1250     8.5980 ca         1 YKH       0.016200
     14 C07        -21.7680   -11.9170     9.9310 cc         1 YKH      -0.141400
     15 C08        -22.6130   -10.8590    10.2890 cd         1 YKH      -0.053300
     16 C09        -23.1400    -9.7580     9.4100 c          1 YKH       0.721200
     17 C16        -22.5410   -12.3680    15.9340 c3         1 YKH      -0.094100
     18 C18        -25.1360   -13.7380    14.7270 c5         1 YKH       0.087000
     19 C19        -26.6410   -13.3310    14.6670 cy         1 YKH       0.137000
     20 C20        -27.4500   -13.1870    16.0060 cy         1 YKH      -0.077900
     21 C21        -28.7280   -13.5540    15.1770 cy         1 YKH      -0.079700
     22 C22        -29.8730   -14.2910    15.8880 c3         1 YKH       0.160800
     23 C28        -21.6290   -13.9810    13.5620 ca         1 YKH      -0.110000
     24 C32        -20.2360   -11.2510     8.0800 ca         1 YKH      -0.107000
     25 C33        -19.7040   -11.5110     6.8040 ca         1 YKH       0.060100
     26 N04        -21.0910   -13.5120     6.5960 nb         1 YKH      -0.748000
     27 N12        -22.9370   -11.0250    11.6630 na         1 YKH      -0.191700
     28 N17        -24.5560   -12.4140    14.4530 n          1 YKH      -0.443800
     29 N23        -30.9390   -14.7990    15.0070 n8         1 YKH      -0.993200
     30 O10        -22.8610    -9.7260     8.2200 o          1 YKH      -0.696000
     31 O11        -23.8650    -8.9220     9.9320 o          1 YKH      -0.696000
     32 O34        -18.7540   -10.6570     6.2830 oh         1 YKH      -0.528100
     33 H291       -20.3720   -15.4970    12.6500 ha         1 YKH       0.092000
     34 H241       -27.9980   -14.4230    13.2110 hc         1 YKH       0.064200
     35 H242       -27.5450   -15.3940    14.6280 hc         1 YKH       0.064200
     36 H301       -20.3330   -14.3850    10.4010 ha         1 YKH       0.109000
     37 H151       -23.0040   -11.0070    14.3890 h1         1 YKH       0.084700
     38 H012       -19.5250   -14.0790     3.1020 h1         1 YKH       0.032367
     39 H011       -19.8410   -14.9910     4.5920 h1         1 YKH       0.032367
     40 H013       -21.1340   -14.0110     3.8510 h1         1 YKH       0.032367
     41 H051       -22.3310   -13.9450     8.2070 h4         1 YKH       0.016100
     42 H162       -23.0620   -11.7570    16.6810 hc         1 YKH       0.037033
     43 H161       -22.6540   -13.4180    16.2230 hc         1 YKH       0.037033
     44 H163       -21.4760   -12.1100    15.9690 hc         1 YKH       0.037033
     45 H181       -24.8510   -14.4600    13.9510 h1         1 YKH       0.061200
     46 H182       -24.8300   -14.1340    15.7040 h1         1 YKH       0.061200
     47 H201       -27.1810   -13.9200    16.7760 hc         1 YKH       0.064200
     48 H202       -27.4450   -12.1920    16.4620 hc         1 YKH       0.064200
     49 H211       -29.1620   -12.6880    14.6620 hc         1 YKH       0.068700
     50 H221       -29.4490   -15.1400    16.4420 h1         1 YKH       0.024700
     51 H222       -30.3230   -13.6010    16.6160 h1         1 YKH       0.024700
     52 H281       -21.6300   -14.4890    14.5220 ha         1 YKH       0.088000
     53 H321       -19.9110   -10.3930     8.6620 ha         1 YKH       0.138000
     54 H121       -23.5940   -10.4520    12.1890 hn         1 YKH       0.389000
     55 H232       -31.6820   -15.2110    15.5850 hn         1 YKH       0.390000
     56 H1         -31.4000   -14.0040    14.5490 hn         1 YKH       0.390000
     57 H341       -18.5920    -9.9280     6.9190 ho         1 YKH       0.459000
     58 O02        -19.6390   -12.9160     4.8370 os         1 YKH      -0.455300
     59 O27        -25.2090   -10.4300    13.4240 o          1 YKH      -0.530000
@<TRIPOS>BOND
     1     1     5 ar  
     2     1     8 ar  
     3     1    27 1   
     4     2     3 1   
     5     2    19 1   
     6     3    28 1   
     7     3    59 2   
     8     4     7 ar  
     9     4    23 ar  
    10     4    33 1   
    11     5     7 ar  
    12     5    14 1   
    13     6    19 1   
    14     6    21 1   
    15     6    34 1   
    16     6    35 1   
    17     7    36 1   
    18     8     9 1   
    19     8    23 ar  
    20     9    17 1   
    21     9    28 1   
    22     9    37 1   
    23    10    38 1   
    24    10    39 1   
    25    10    40 1   
    26    10    58 1   
    27    11    25 ar  
    28    11    26 ar  
    29    11    58 1   
    30    12    13 ar  
    31    12    26 ar  
    32    12    41 1   
    33    13    14 1   
    34    13    24 ar  
    35    14    15 2   
    36    15    16 1   
    37    15    27 1   
    38    16    30 1   
    39    16    31 1   
    40    17    42 1   
    41    17    43 1   
    42    17    44 1   
    43    18    19 1   
    44    18    28 1   
    45    18    45 1   
    46    18    46 1   
    47    19    20 1   
    48    20    21 1   
    49    20    47 1   
    50    20    48 1   
    51    21    22 1   
    52    21    49 1   
    53    22    29 1   
    54    22    50 1   
    55    22    51 1   
    56    23    52 1   
    57    24    25 ar  
    58    24    53 1   
    59    25    32 1   
    60    27    54 1   
    61    29    55 1   
    62    29    56 1   
    63    32    57 1   
@<TRIPOS>SUBSTRUCTURE
     1 YKH         1 TEMP              0 ****  ****    0 ROOT
