@<TRIPOS>MOLECULE
YKI
   52    58     1     0     0
SMALL
No Charge or Current Charge


@<TRIPOS>ATOM
      1 C1          13.1670    14.3510    26.4520 ca         1 YKI       0.302900
      2 N1          12.9490    14.5530    27.7820 nb         1 YKI      -0.655000
      3 C2          11.6630    14.6220    28.2110 ca         1 YKI       0.347900
      4 N2           9.2400    14.5280    27.5210 na         1 YKI      -0.305600
      5 C3          12.1280    14.2100    25.5090 ca         1 YKI      -0.100000
      6 N3           9.6310    14.1810    25.2750 nc         1 YKI      -0.567100
      7 C4           8.7000    14.3030    26.2450 cd         1 YKI       0.484400
      8 N4           3.5950    11.7360    24.5170 ns         1 YKI      -0.493900
      9 C5          10.8130    14.2830    25.9820 ca         1 YKI       0.097400
     10 N5          -1.0070     9.9240    25.9690 nb         1 YKI      -0.666000
     11 C6          10.5950    14.4860    27.3080 ca         1 YKI      -0.143200
     12 N6          -2.4010    11.3950    24.5780 na         1 YKI      -0.334400
     13 C7           7.2610    14.3420    25.9450 ca         1 YKI      -0.107900
     14 C8           4.5020    14.7060    25.2750 ca         1 YKI      -0.064000
     15 C9           5.1680    15.6430    26.0810 ca         1 YKI      -0.114000
     16 C10          6.5300    15.4650    26.4060 ca         1 YKI      -0.094000
     17 C12          1.1780    11.3470    24.7590 ca         1 YKI      -0.065600
     18 O13          2.1500    12.9920    23.2830 o          1 YKI      -0.591100
     19 C14          1.3850    10.3110    25.7100 ca         1 YKI      -0.175000
     20 C15          0.2810     9.6390    26.2780 ca         1 YKI       0.347900
     21 C16          4.7560    12.4260    23.9530 c5         1 YKI       0.194300
     22 C17          5.2220    13.5890    24.8350 ca         1 YKI      -0.117300
     23 C18          6.5690    13.3730    25.1630 cp         1 YKI       0.026000
     24 C19          5.9630    11.4910    23.8710 ca         1 YKI      -0.107300
     25 C20          7.0010    12.0720    24.6090 cp         1 YKI      -0.040000
     26 C21          8.2040    11.3440    24.7740 ca         1 YKI      -0.065000
     27 C22          8.3470    10.0900    24.1440 ca         1 YKI      -0.111000
     28 C23          7.2960     9.5460    23.3740 ca         1 YKI      -0.103000
     29 C24          6.0820    10.2450    23.2400 ca         1 YKI      -0.088000
     30 C25         -0.1800    11.6060    24.4710 ca         1 YKI      -0.090800
     31 C26         -1.2070    10.9030    25.0710 ca         1 YKI       0.361500
     32 C27         -2.1970    12.4320    23.6430 cc         1 YKI      -0.147100
     33 C28         -0.8210    12.5550    23.5840 cd         1 YKI      -0.218200
     34 H1          14.2080    14.3010    26.1360 h4         1 YKI       0.022100
     35 H2          11.4960    14.7860    29.2760 h4         1 YKI       0.022100
     36 H3          12.3440    14.0510    24.4570 ha         1 YKI       0.138000
     37 HN4          3.6710    11.0020    25.2060 hn         1 YKI       0.322500
     38 H8           3.4580    14.8430    25.0050 ha         1 YKI       0.129000
     39 H9           4.6360    16.5220    26.4400 ha         1 YKI       0.121000
     40 H10          7.0280    16.2290    26.9990 ha         1 YKI       0.115000
     41 H14          2.3790    10.0080    26.0220 ha         1 YKI       0.123000
     42 H15          0.4360     8.8450    27.0070 h4         1 YKI       0.023100
     43 H16          4.5550    12.8050    22.9400 h1         1 YKI       0.115700
     44 H21          9.0120    11.7190    25.3910 ha         1 YKI       0.134000
     45 H22          9.2730     9.5310    24.2630 ha         1 YKI       0.116000
     46 H23          7.4180     8.5750    22.8980 ha         1 YKI       0.116000
     47 H24          5.2540     9.8240    22.6740 ha         1 YKI       0.123000
     48 H27         -2.9980    12.9620    23.1310 h4         1 YKI       0.219000
     49 H28         -0.3080    13.2750    22.9490 ha         1 YKI       0.225000
     50 HN2          8.7280    14.6770    28.3810 hn         1 YKI       0.362000
     51 C11          2.3260    12.1080    24.1110 c          1 YKI       0.612700
     52 HN6         -3.3030    11.0380    24.8680 hn         1 YKI       0.364000
@<TRIPOS>BOND
     1     1     2 ar  
     2     1     5 ar  
     3     1    34 1   
     4     2     3 ar  
     5     3    11 ar  
     6     3    35 1   
     7     4     7 1   
     8     4    11 1   
     9     4    50 1   
    10     5     9 ar  
    11     5    36 1   
    12     6     7 2   
    13     6     9 1   
    14     7    13 1   
    15     8    21 1   
    16     8    37 1   
    17     8    51 1   
    18     9    11 ar  
    19    10    20 ar  
    20    10    31 ar  
    21    12    31 1   
    22    12    32 1   
    23    12    52 1   
    24    13    16 ar  
    25    13    23 ar  
    26    14    15 ar  
    27    14    22 ar  
    28    14    38 1   
    29    15    16 ar  
    30    15    39 1   
    31    16    40 1   
    32    17    19 ar  
    33    17    30 ar  
    34    17    51 1   
    35    18    51 2   
    36    19    20 ar  
    37    19    41 1   
    38    20    42 1   
    39    21    22 1   
    40    21    24 1   
    41    21    43 1   
    42    22    23 ar  
    43    23    25 1   
    44    24    25 ar  
    45    24    29 ar  
    46    25    26 ar  
    47    26    27 ar  
    48    26    44 1   
    49    27    28 ar  
    50    27    45 1   
    51    28    29 ar  
    52    28    46 1   
    53    29    47 1   
    54    30    31 ar  
    55    30    33 1   
    56    32    33 2   
    57    32    48 1   
    58    33    49 1   
@<TRIPOS>SUBSTRUCTURE
     1 YKI         1 TEMP              0 ****  ****    0 ROOT
