@<TRIPOS>MOLECULE
YKI
   52    58     1     0     0
SMALL
abcg2


@<TRIPOS>ATOM
      1 C1          13.1600    14.2870    26.5440 ca         1 YKI       0.302900
      2 N1          12.8980    14.5530    27.8420 nb         1 YKI      -0.655000
      3 C2          11.6320    14.6870    28.2340 ca         1 YKI       0.347900
      4 N2           9.2290    14.6280    27.3950 na         1 YKI      -0.305600
      5 C3          12.1970    14.1370    25.5580 ca         1 YKI      -0.100000
      6 N3           9.6850    14.1810    25.2540 nc         1 YKI      -0.567100
      7 C4           8.7290    14.3920    26.1430 cd         1 YKI       0.484400
      8 N4           3.4930    11.8900    24.5530 ns         1 YKI      -0.493900
      9 C5          10.8680    14.2720    25.9570 ca         1 YKI       0.097400
     10 N5          -0.9560     9.7790    25.8000 nb         1 YKI      -0.666000
     11 C6          10.6010    14.5530    27.3140 ca         1 YKI      -0.143200
     12 N6          -2.3230    11.4780    24.7940 na         1 YKI      -0.334400
     13 C7           7.2900    14.4430    25.8630 ca         1 YKI      -0.107900
     14 C8           4.5420    14.7440    25.2940 ca         1 YKI      -0.064000
     15 C9           5.2140    15.7050    26.0480 ca         1 YKI      -0.114000
     16 C10          6.5670    15.5540    26.3210 ca         1 YKI      -0.094000
     17 C12          1.2040    11.1480    24.5390 ca         1 YKI      -0.065600
     18 O13          2.2030    12.3440    22.7370 o          1 YKI      -0.591100
     19 C14          1.3980    10.0120    25.3210 ca         1 YKI      -0.175000
     20 C15          0.3090     9.3680    25.9180 ca         1 YKI       0.347900
     21 C16          4.7130    12.4780    24.0380 c5         1 YKI       0.194300
     22 C17          5.2430    13.6390    24.8530 ca         1 YKI      -0.117300
     23 C18          6.6070    13.4540    25.1400 cp         1 YKI       0.026000
     24 C19          5.8940    11.5320    24.0160 ca         1 YKI      -0.107300
     25 C20          7.0080    12.1240    24.6350 cp         1 YKI      -0.040000
     26 C21          8.1990    11.4060    24.7300 ca         1 YKI      -0.065000
     27 C22          8.2530    10.1160    24.2090 ca         1 YKI      -0.111000
     28 C23          7.1410     9.5390    23.5970 ca         1 YKI      -0.103000
     29 C24          5.9480    10.2520    23.4970 ca         1 YKI      -0.088000
     30 C25         -0.1100    11.6040    24.3810 ca         1 YKI      -0.090800
     31 C26         -1.1280    10.8640    25.0550 ca         1 YKI       0.361500
     32 C27         -2.1000    12.5740    23.9920 cc         1 YKI      -0.147100
     33 C28         -0.7630    12.6870    23.7130 cd         1 YKI      -0.218200
     34 H1          14.2090    14.1900    26.2880 h4         1 YKI       0.022100
     35 H2          11.4430    14.9000    29.2800 h4         1 YKI       0.022100
     36 H3          12.4720    13.9230    24.5340 ha         1 YKI       0.138000
     37 HN4          3.5090    11.5220    25.4920 hn         1 YKI       0.322500
     38 H8           3.4890    14.8550    25.0670 ha         1 YKI       0.129000
     39 H9           4.6880    16.5770    26.4130 ha         1 YKI       0.121000
     40 H10          7.0860    16.3200    26.8830 ha         1 YKI       0.115000
     41 H14          2.3860     9.5950    25.4580 ha         1 YKI       0.123000
     42 H15          0.4730     8.4780    26.5140 h4         1 YKI       0.023100
     43 H16          4.4790    12.8170    23.0260 h1         1 YKI       0.115700
     44 H21          9.0710    11.8370    25.1950 ha         1 YKI       0.134000
     45 H22          9.1740     9.5520    24.2850 ha         1 YKI       0.116000
     46 H23          7.2040     8.5330    23.2010 ha         1 YKI       0.116000
     47 H24          5.0750     9.8090    23.0320 ha         1 YKI       0.123000
     48 H27         -2.9240    13.1920    23.6750 h4         1 YKI       0.219000
     49 H28         -0.3040    13.4440    23.1010 ha         1 YKI       0.225000
     50 HN2          8.6820    14.7860    28.2280 hn         1 YKI       0.362000
     51 C11          2.3370    11.8490    23.8560 c          1 YKI       0.612700
     52 HN6         -3.2170    11.1870    25.1580 hn         1 YKI       0.364000
@<TRIPOS>BOND
     1     1     2 ar  
     2     1     5 ar  
     3     1    34 1   
     4     2     3 ar  
     5     3    11 ar  
     6     3    35 1   
     7     4     7 1   
     8     4    11 1   
     9     4    50 1   
    10     5     9 ar  
    11     5    36 1   
    12     6     7 2   
    13     6     9 1   
    14     7    13 1   
    15     8    21 1   
    16     8    37 1   
    17     8    51 1   
    18     9    11 ar  
    19    10    20 ar  
    20    10    31 ar  
    21    12    31 1   
    22    12    32 1   
    23    12    52 1   
    24    13    16 ar  
    25    13    23 ar  
    26    14    15 ar  
    27    14    22 ar  
    28    14    38 1   
    29    15    16 ar  
    30    15    39 1   
    31    16    40 1   
    32    17    19 ar  
    33    17    30 ar  
    34    17    51 1   
    35    18    51 2   
    36    19    20 ar  
    37    19    41 1   
    38    20    42 1   
    39    21    22 1   
    40    21    24 1   
    41    21    43 1   
    42    22    23 ar  
    43    23    25 1   
    44    24    25 ar  
    45    24    29 ar  
    46    25    26 ar  
    47    26    27 ar  
    48    26    44 1   
    49    27    28 ar  
    50    27    45 1   
    51    28    29 ar  
    52    28    46 1   
    53    29    47 1   
    54    30    31 ar  
    55    30    33 1   
    56    32    33 2   
    57    32    48 1   
    58    33    49 1   
@<TRIPOS>SUBSTRUCTURE
     1 YKI         1 TEMP              0 ****  ****    0 ROOT
