@<TRIPOS>MOLECULE
YKL
  123   131     1     0     0
SMALL
abcg2


@<TRIPOS>ATOM
      1 C1         -24.5820    59.8950     6.8720 c3         1 YKL       0.150900
      2 C3         -23.0760    58.5370     5.7030 cc         1 YKL       0.554300
      3 C7         -22.1010    57.2610     4.1960 cd         1 YKL      -0.088000
      4 C8         -21.8710    57.8320     5.4420 cc         1 YKL      -0.315600
      5 C15        -16.0690    55.9530     5.7560 c          1 YKL       0.748100
      6 C17        -15.2360    55.6090     4.5740 ca         1 YKL      -0.102600
      7 C18        -15.7570    54.9840     3.4490 ca         1 YKL      -0.076000
      8 C19        -14.8950    54.6650     2.4150 ca         1 YKL      -0.121000
      9 C23        -10.4260    55.1810     1.7080 c6         1 YKL      -0.035700
     10 C24         -9.3230    54.6580     2.6350 c6         1 YKL      -0.070400
     11 C27         -8.5130    55.5590     0.0520 ca         1 YKL      -0.056300
     12 C31        -10.3450    56.0680    -2.0010 ca         1 YKL      -0.110000
     13 C32        -10.7760    55.7560    -0.7240 ca         1 YKL      -0.094000
     14 C33         -9.8860    55.4910     0.3200 ca         1 YKL      -0.071300
     15 C34        -11.0460    56.4740     2.2670 c3         1 YKL       0.227800
     16 C36        -11.2870    57.0830     4.6480 c3         1 YKL       0.232800
     17 C37        -11.8740    58.4980     4.7290 c5         1 YKL      -0.118700
     18 C39        -11.5430    59.3960     3.5340 c5         1 YKL      -0.116400
     19 C40        -11.6340    60.7760     4.1500 c5         1 YKL       0.153600
     20 O41        -11.0860    60.6250     5.4490 os         1 YKL      -0.457000
     21 O2         -23.3170    59.2490     6.7900 os         1 YKL      -0.415300
     22 N4         -23.9330    58.4080     4.7200 nd         1 YKL      -0.615800
     23 N5         -23.3170    57.6250     3.8170 na         1 YKL       0.154800
     24 C9         -20.7130    57.7430     6.3070 c          1 YKL       0.690700
     25 O10        -20.6840    58.1480     7.4510 o          1 YKL      -0.548100
     26 N11        -19.5850    57.1650     5.7410 ns         1 YKL      -0.548300
     27 S12        -18.2180    56.8470     6.6270 s6         1 YKL       0.983300
     28 O13        -18.5370    56.0890     7.8250 o          1 YKL      -0.466000
     29 N14        -17.3760    56.2070     5.4620 ne         1 YKL      -0.623900
     30 C20        -13.5560    55.0310     2.4430 ca         1 YKL       0.072100
     31 O21        -12.8050    54.6240     1.3850 os         1 YKL      -0.358100
     32 C22        -11.5200    54.1040     1.6840 c3         1 YKL       0.168600
     33 C25         -8.0260    55.4340     2.5120 c6         1 YKL      -0.071400
     34 C26         -7.4740    55.2820     1.1070 c6         1 YKL      -0.035100
     35 C28         -8.0750    55.8760    -1.2340 ca         1 YKL      -0.112000
     36 C29         -8.9830    56.1250    -2.2440 ca         1 YKL       0.125000
     37 CL30        -8.4120    56.5270    -3.8320 cl         1 YKL      -0.207000
     38 N35        -11.7440    56.2830     3.5250 nh         1 YKL      -0.824400
     39 C42        -11.2990    59.3030     5.9100 c5         1 YKL       0.177300
     40 C44        -12.1580    59.3400     7.1980 c3         1 YKL       0.212200
     41 C45        -11.3990    60.0730     8.3360 c3         1 YKL       0.159800
     42 N46        -10.1170    59.4690     8.6530 n3         1 YKL      -0.734600
     43 C47         -9.9100    59.2340    10.0710 c6         1 YKL       0.172800
     44 C48         -8.6430    58.4310    10.2870 c6         1 YKL       0.168800
     45 N49         -7.5010    59.1180     9.7250 n3         1 YKL      -0.721600
     46 C50         -6.2650    58.3920     9.9340 c6         1 YKL       0.131800
     47 C51         -5.1040    59.1820     9.3600 c6         1 YKL       0.152600
     48 O52         -5.3010    59.4610     7.9920 os         1 YKL      -0.449000
     49 C53         -6.5000    60.1690     7.7850 c6         1 YKL       0.155600
     50 C54         -7.7030    59.4040     8.3140 c6         1 YKL       0.138500
     51 C56         -8.9790    60.2040     8.1280 c6         1 YKL       0.169800
     52 O57        -12.3880    57.9830     7.4800 os         1 YKL      -0.454000
     53 C58        -12.9440    57.6320     8.7280 c3         1 YKL       0.147900
     54 C59        -13.4820    60.0400     6.9450 c2         1 YKL       0.075300
     55 F60        -13.4100    61.3900     7.0100 f          1 YKL      -0.182500
     56 C61        -14.6540    59.4860     6.6780 c2         1 YKL      -0.265200
     57 C62        -15.9260    60.2430     6.4210 c3         1 YKL      -0.027200
     58 C63        -17.0790    59.3450     5.9490 c3         1 YKL      -0.028700
     59 C65        -18.2200    60.2020     5.4140 c3         1 YKL      -0.095100
     60 C66        -17.5230    58.4420     7.1050 c3         1 YKL      -0.274400
     61 C67        -13.0340    55.7830     3.5230 ca         1 YKL       0.268000
     62 C68        -13.8960    55.9800     4.6070 ca         1 YKL      -0.132000
     63 H1         -24.5940    60.4150     7.8260 h1         1 YKL       0.050367
     64 H2         -24.7160    60.6190     6.0660 h1         1 YKL       0.050367
     65 H3         -25.4020    59.1770     6.8420 h1         1 YKL       0.050367
     66 H4         -24.9160    56.7160     2.8380 h1         1 YKL       0.063367
     67 H5         -24.2700    58.1660     2.0450 h1         1 YKL       0.063367
     68 H6         -23.3590    56.6470     1.9950 h1         1 YKL       0.063367
     69 H7         -21.4890    56.6200     3.5800 h4         1 YKL       0.160000
     70 H8         -16.8010    54.7060     3.3960 ha         1 YKL       0.130000
     71 H9         -15.2520    54.1080     1.5570 ha         1 YKL       0.123000
     72 H10         -9.6950    54.6720     3.6620 hc         1 YKL       0.051200
     73 H11         -9.1260    53.6060     2.3970 hc         1 YKL       0.051200
     74 H12        -11.0600    56.2670    -2.7880 ha         1 YKL       0.130000
     75 H13        -11.8430    55.7190    -0.5470 ha         1 YKL       0.133000
     76 H14        -10.2480    57.1940     2.4330 h1         1 YKL       0.051700
     77 H15        -11.7010    56.9370     1.5210 h1         1 YKL       0.051700
     78 H16        -11.4790    56.5460     5.5780 h1         1 YKL       0.064200
     79 H17        -10.2000    57.1580     4.5700 h1         1 YKL       0.064200
     80 H18        -12.9620    58.4410     4.8150 hc         1 YKL       0.075700
     81 H19        -12.2270    59.2590     2.6970 hc         1 YKL       0.055700
     82 H20        -10.5260    59.2190     3.1740 hc         1 YKL       0.055700
     83 H21        -11.0550    61.5310     3.6150 h1         1 YKL       0.049200
     84 H22        -12.6740    61.1200     4.1980 h1         1 YKL       0.049200
     85 H23        -19.5240    56.9010     4.7660 hn         1 YKL       0.361500
     86 H26        -11.3000    53.3530     0.9230 h1         1 YKL       0.060200
     87 H27        -11.5470    53.5860     2.6490 h1         1 YKL       0.060200
     88 H28         -7.2980    55.0690     3.2390 hc         1 YKL       0.045200
     89 H29         -8.1850    56.4920     2.7410 hc         1 YKL       0.045200
     90 H30         -7.1050    54.2590     0.9750 hc         1 YKL       0.052200
     91 H31         -6.6140    55.9360     0.9520 hc         1 YKL       0.052200
     92 H32         -7.0120    55.9310    -1.4340 ha         1 YKL       0.126000
     93 H33        -10.3310    58.8670     6.1940 h1         1 YKL       0.082700
     94 H34        -11.2770    61.1260     8.0670 h1         1 YKL       0.054200
     95 H35        -12.0300    60.0730     9.2290 h1         1 YKL       0.054200
     96 H37         -9.8460    60.1770    10.6400 h1         1 YKL       0.037700
     97 H38        -10.7520    58.6730    10.4800 h1         1 YKL       0.037700
     98 H39         -8.7760    57.4290     9.8440 h1         1 YKL       0.039200
     99 H40         -8.4820    58.2920    11.3590 h1         1 YKL       0.039200
    100 H42         -6.2960    57.3900     9.4720 h1         1 YKL       0.040200
    101 H43         -6.1060    58.2480    11.0060 h1         1 YKL       0.040200
    102 H44         -4.1770    58.6120     9.4470 h1         1 YKL       0.050200
    103 H45         -4.9820    60.1150     9.9280 h1         1 YKL       0.050200
    104 H46         -6.4550    61.1560     8.2710 h1         1 YKL       0.050700
    105 H47         -6.6020    60.3280     6.7090 h1         1 YKL       0.050700
    106 H48         -7.8000    58.4660     7.7340 h1         1 YKL       0.044700
    107 H49         -9.1170    60.4050     7.0660 h1         1 YKL       0.046700
    108 H50         -8.8700    61.1840     8.6270 h1         1 YKL       0.046700
    109 H51        -13.3260    56.6180     8.6270 h1         1 YKL       0.037367
    110 H52        -12.1990    57.6380     9.5270 h1         1 YKL       0.037367
    111 H53        -13.7750    58.2770     9.0250 h1         1 YKL       0.037367
    112 H54        -14.6820    58.4060     6.6360 ha         1 YKL       0.206000
    113 H55        -15.7590    61.0030     5.6520 hc         1 YKL       0.056700
    114 H56        -16.2390    60.7900     7.3170 hc         1 YKL       0.056700
    115 H57        -16.6950    58.7280     5.1310 hc         1 YKL       0.062700
    116 H58        -19.0340    59.6080     5.0010 hc         1 YKL       0.040700
    117 H59        -18.6310    60.8400     6.1990 hc         1 YKL       0.040700
    118 H60        -17.8580    60.8480     4.6130 hc         1 YKL       0.040700
    119 H61        -16.6910    58.1530     7.7500 h1         1 YKL       0.120200
    120 H62        -18.2740    58.9150     7.7400 h1         1 YKL       0.120200
    121 H63        -13.5340    56.4790     5.4940 ha         1 YKL       0.141000
    122 C6         -24.0100    57.2690     2.6020 c3         1 YKL       0.071900
    123 O16        -15.5750    56.0410     6.8740 o          1 YKL      -0.650100
@<TRIPOS>BOND
     1     1    21 1   
     2     1    63 1   
     3     1    64 1   
     4     1    65 1   
     5     2     4 1   
     6     2    21 1   
     7     2    22 2   
     8     3     4 2   
     9     3    23 1   
    10     3    69 1   
    11     4    24 1   
    12     5     6 1   
    13     5    29 1   
    14     5   123 2   
    15     6     7 ar  
    16     6    62 ar  
    17     7     8 ar  
    18     7    70 1   
    19     8    30 ar  
    20     8    71 1   
    21     9    10 1   
    22     9    14 1   
    23     9    15 1   
    24     9    32 1   
    25    10    33 1   
    26    10    72 1   
    27    10    73 1   
    28    11    14 ar  
    29    11    34 1   
    30    11    35 ar  
    31    12    13 ar  
    32    12    36 ar  
    33    12    74 1   
    34    13    14 ar  
    35    13    75 1   
    36    15    38 1   
    37    15    76 1   
    38    15    77 1   
    39    16    17 1   
    40    16    38 1   
    41    16    78 1   
    42    16    79 1   
    43    17    18 1   
    44    17    39 1   
    45    17    80 1   
    46    18    19 1   
    47    18    81 1   
    48    18    82 1   
    49    19    20 1   
    50    19    83 1   
    51    19    84 1   
    52    20    39 1   
    53    22    23 1   
    54    23   122 1   
    55    24    25 2   
    56    24    26 1   
    57    26    27 1   
    58    26    85 1   
    59    27    28 2   
    60    27    29 2   
    61    27    60 1   
    62    30    31 1   
    63    30    61 ar  
    64    31    32 1   
    65    32    86 1   
    66    32    87 1   
    67    33    34 1   
    68    33    88 1   
    69    33    89 1   
    70    34    90 1   
    71    34    91 1   
    72    35    36 ar  
    73    35    92 1   
    74    36    37 1   
    75    38    61 1   
    76    39    40 1   
    77    39    93 1   
    78    40    41 1   
    79    40    52 1   
    80    40    54 1   
    81    41    42 1   
    82    41    94 1   
    83    41    95 1   
    84    42    43 1   
    85    42    51 1   
    86    43    44 1   
    87    43    96 1   
    88    43    97 1   
    89    44    45 1   
    90    44    98 1   
    91    44    99 1   
    92    45    46 1   
    93    45    50 1   
    94    46    47 1   
    95    46   100 1   
    96    46   101 1   
    97    47    48 1   
    98    47   102 1   
    99    47   103 1   
   100    48    49 1   
   101    49    50 1   
   102    49   104 1   
   103    49   105 1   
   104    50    51 1   
   105    50   106 1   
   106    51   107 1   
   107    51   108 1   
   108    52    53 1   
   109    53   109 1   
   110    53   110 1   
   111    53   111 1   
   112    54    55 1   
   113    54    56 2   
   114    56    57 1   
   115    56   112 1   
   116    57    58 1   
   117    57   113 1   
   118    57   114 1   
   119    58    59 1   
   120    58    60 1   
   121    58   115 1   
   122    59   116 1   
   123    59   117 1   
   124    59   118 1   
   125    60   119 1   
   126    60   120 1   
   127    61    62 ar  
   128    62   121 1   
   129    66   122 1   
   130    67   122 1   
   131    68   122 1   
@<TRIPOS>SUBSTRUCTURE
     1 YKL         1 TEMP              0 ****  ****    0 ROOT
