@<TRIPOS>MOLECULE
YKL
  123   131     1     0     0
SMALL
No Charge or Current Charge


@<TRIPOS>ATOM
      1 C1         -24.7470    59.5130     7.3850 c3         1 YKL       0.150900
      2 C3         -23.1090    58.3740     5.9710 cc         1 YKL       0.554300
      3 C7         -21.9460    57.3370     4.4250 cd         1 YKL      -0.088000
      4 C8         -21.8480    57.8520     5.6920 cc         1 YKL      -0.315600
      5 C15        -16.0290    55.8080     5.9500 c          1 YKL       0.748100
      6 C17        -15.2260    55.5110     4.7050 ca         1 YKL      -0.102600
      7 C18        -15.7990    54.8180     3.6220 ca         1 YKL      -0.076000
      8 C19        -15.0230    54.5080     2.4980 ca         1 YKL      -0.121000
      9 C23        -10.5570    55.1390     1.3760 c6         1 YKL      -0.035700
     10 C24         -9.3080    54.6810     2.1920 c6         1 YKL      -0.070400
     11 C27         -8.8270    55.6470    -0.5000 ca         1 YKL      -0.056300
     12 C31        -10.8820    55.9270    -2.4070 ca         1 YKL      -0.110000
     13 C32        -11.1970    55.6210    -1.0730 ca         1 YKL      -0.094000
     14 C33        -10.1800    55.4610    -0.1010 ca         1 YKL      -0.071300
     15 C34        -11.1720    56.4250     2.0050 c3         1 YKL       0.227800
     16 C36        -11.1300    57.0320     4.4480 c3         1 YKL       0.232800
     17 C37        -11.5400    58.5310     4.5180 c5         1 YKL      -0.118700
     18 C39        -10.9760    59.4360     3.3840 c5         1 YKL      -0.116400
     19 C40        -11.1640    60.8160     4.0360 c5         1 YKL       0.153600
     20 O41        -10.6140    60.6000     5.3450 os         1 YKL      -0.457000
     21 O2         -23.4260    58.9860     7.1540 os         1 YKL      -0.415300
     22 N4         -24.0060    58.2500     5.0200 nd         1 YKL      -0.615800
     23 N5         -23.2720    57.5930     4.0390 na         1 YKL       0.154800
     24 C9         -20.6820    57.8700     6.5860 c          1 YKL       0.690700
     25 O10        -20.6710    58.3630     7.7020 o          1 YKL      -0.548100
     26 N11        -19.5830    57.2930     6.0380 ns         1 YKL      -0.548300
     27 S12        -18.0940    57.0610     6.7500 s6         1 YKL       0.983300
     28 O13        -18.2440    56.5000     8.0950 o          1 YKL      -0.466000
     29 N14        -17.3460    56.1470     5.6970 ne         1 YKL      -0.623900
     30 C20        -13.6780    54.9070     2.4180 ca         1 YKL       0.072100
     31 O21        -12.9760    54.4510     1.3160 os         1 YKL      -0.358100
     32 C22        -11.6170    53.9850     1.4600 c3         1 YKL       0.168600
     33 C25         -8.0790    55.5800     1.9580 c6         1 YKL      -0.071400
     34 C26         -7.6570    55.5100     0.4800 c6         1 YKL      -0.035100
     35 C28         -8.5250    55.9490    -1.8430 ca         1 YKL      -0.112000
     36 C29         -9.5460    56.0860    -2.7920 ca         1 YKL       0.125000
     37 Cl30        -9.1510    56.4670    -4.4620 cl         1 YKL      -0.207000
     38 N35        -11.7810    56.2680     3.3470 nh         1 YKL      -0.824400
     39 C42        -11.0320    59.2850     5.8050 c5         1 YKL       0.177300
     40 C44        -12.0240    59.3980     7.0160 c3         1 YKL       0.212200
     41 C45        -11.3560    60.1050     8.2640 c3         1 YKL       0.159800
     42 N46        -10.1600    59.4530     8.8930 n3         1 YKL      -0.734600
     43 C47        -10.1590    59.5670    10.3880 c6         1 YKL       0.172800
     44 C48         -8.9400    58.8440    11.0480 c6         1 YKL       0.168800
     45 N49         -7.6430    59.3350    10.4980 n3         1 YKL      -0.721600
     46 C50         -6.4640    58.6460    11.1020 c6         1 YKL       0.131800
     47 C51         -5.1340    59.1570    10.4690 c6         1 YKL       0.152600
     48 O52         -5.1700    59.0150     9.0270 os         1 YKL      -0.449000
     49 C53         -6.2790    59.7220     8.4170 c6         1 YKL       0.155600
     50 C54         -7.6310    59.2080     9.0000 c6         1 YKL       0.138500
     51 C56         -8.8470    59.9520     8.3590 c6         1 YKL       0.169800
     52 O57        -12.3530    58.0160     7.3670 os         1 YKL      -0.454000
     53 C58        -13.1700    57.7780     8.5350 c3         1 YKL       0.147900
     54 C59        -13.3260    60.1410     6.6240 c2         1 YKL       0.075300
     55 F60        -13.2780    61.4660     6.8280 f          1 YKL      -0.182500
     56 C61        -14.4270    59.5760     6.0950 c2         1 YKL      -0.265200
     57 C62        -15.6970    60.3040     5.6880 c3         1 YKL      -0.027200
     58 C63        -16.9200    59.3640     5.5220 c3         1 YKL      -0.028700
     59 C65        -18.1200    60.1300     4.9150 c3         1 YKL      -0.095100
     60 C66        -17.2840    58.6730     6.8730 c3         1 YKL      -0.274400
     61 C67        -13.0920    55.6920     3.4640 ca         1 YKL       0.268000
     62 C68        -13.8820    55.9360     4.6140 ca         1 YKL      -0.132000
     63 H1         -24.8090    59.9640     8.3830 h1         1 YKL       0.050367
     64 H2         -24.9940    60.2880     6.6470 h1         1 YKL       0.050367
     65 H3         -25.5020    58.7190     7.3240 h1         1 YKL       0.050367
     66 H4         -24.7860    56.6340     2.9330 h1         1 YKL       0.063367
     67 H5         -24.1640    58.1510     2.2150 h1         1 YKL       0.063367
     68 H6         -23.1790    56.6590     2.1490 h1         1 YKL       0.063367
     69 H7         -21.2340    56.8340     3.7790 h4         1 YKL       0.160000
     70 H8         -16.8340    54.4820     3.6660 ha         1 YKL       0.130000
     71 H9         -15.4590    53.9280     1.6880 ha         1 YKL       0.123000
     72 H10         -9.5480    54.6600     3.2630 hc         1 YKL       0.051200
     73 H11         -9.0450    53.6490     1.9210 hc         1 YKL       0.051200
     74 H12        -11.6760    56.0430    -3.1410 ha         1 YKL       0.130000
     75 H13        -12.2440    55.5170    -0.8040 ha         1 YKL       0.133000
     76 H14        -10.3930    57.1960     2.0230 h1         1 YKL       0.051700
     77 H15        -11.9380    56.8160     1.3210 h1         1 YKL       0.051700
     78 H16        -11.3380    56.5490     5.4120 h1         1 YKL       0.064200
     79 H17        -10.0380    56.9800     4.3350 h1         1 YKL       0.064200
     80 H18        -12.6310    58.5470     4.4690 hc         1 YKL       0.075700
     81 H19        -11.5310    59.3390     2.4440 hc         1 YKL       0.055700
     82 H20         -9.9180    59.2370     3.1770 hc         1 YKL       0.055700
     83 H21        -10.6180    61.6180     3.5210 h1         1 YKL       0.049200
     84 H22        -12.2240    61.0950     4.1230 h1         1 YKL       0.049200
     85 H23        -19.6390    56.8850     5.1220 hn         1 YKL       0.361500
     86 H26        -11.3840    53.2520     0.6780 h1         1 YKL       0.060200
     87 H27        -11.5140    53.4650     2.4220 h1         1 YKL       0.060200
     88 H28         -7.2470    55.2520     2.5960 hc         1 YKL       0.045200
     89 H29         -8.2930    56.6180     2.2420 hc         1 YKL       0.045200
     90 H30         -7.1560    54.5500     0.2940 hc         1 YKL       0.052200
     91 H31         -6.9060    56.2870     0.2830 hc         1 YKL       0.052200
     92 H32         -7.4910    56.0790    -2.1530 ha         1 YKL       0.126000
     93 H33        -10.1390    58.7650     6.1700 h1         1 YKL       0.082700
     94 H34        -11.0890    61.1300     7.9740 h1         1 YKL       0.054200
     95 H35        -12.1460    60.2240     9.0180 h1         1 YKL       0.054200
     96 H37        -10.1380    60.6270    10.6830 h1         1 YKL       0.037700
     97 H38        -11.0820    59.1380    10.8040 h1         1 YKL       0.037700
     98 H39         -9.0400    57.7620    10.8750 h1         1 YKL       0.039200
     99 H40         -8.9790    59.0030    12.1350 h1         1 YKL       0.039200
    100 H42         -6.5340    57.5590    10.9470 h1         1 YKL       0.040200
    101 H43         -6.4330    58.8190    12.1880 h1         1 YKL       0.040200
    102 H44         -4.2850    58.5830    10.8670 h1         1 YKL       0.050200
    103 H45         -4.9800    60.2150    10.7250 h1         1 YKL       0.050200
    104 H46         -6.1710    60.8000     8.6060 h1         1 YKL       0.050700
    105 H47         -6.2530    59.5590     7.3300 h1         1 YKL       0.050700
    106 H48         -7.7210    58.1460     8.7270 h1         1 YKL       0.044700
    107 H49         -8.7840    59.8380     7.2700 h1         1 YKL       0.046700
    108 H50         -8.7450    61.0280     8.5650 h1         1 YKL       0.046700
    109 H51        -13.4230    56.7130     8.6040 h1         1 YKL       0.037367
    110 H52        -12.6390    58.0470     9.4560 h1         1 YKL       0.037367
    111 H53        -14.1080    58.3460     8.4960 h1         1 YKL       0.037367
    112 H54        -14.4510    58.5020     5.9250 ha         1 YKL       0.206000
    113 H55        -15.5160    60.8160     4.7340 hc         1 YKL       0.056700
    114 H56        -15.9380    61.0890     6.4160 hc         1 YKL       0.056700
    115 H57        -16.6240    58.5980     4.7930 hc         1 YKL       0.062700
    116 H58        -18.9410    59.4540     4.6570 hc         1 YKL       0.040700
    117 H59        -18.4990    60.8830     5.6170 hc         1 YKL       0.040700
    118 H60        -17.8230    60.6450     3.9930 hc         1 YKL       0.040700
    119 H61        -16.3790    58.4660     7.4520 h1         1 YKL       0.120200
    120 H62        -17.9370    59.3090     7.4810 h1         1 YKL       0.120200
    121 H63        -13.4700    56.4810     5.4530 ha         1 YKL       0.141000
    122 C6         -23.8880    57.2370     2.7540 c3         1 YKL       0.071900
    123 O16        -15.5150    55.7560     7.0590 o          1 YKL      -0.650100
@<TRIPOS>BOND
     1     1    21 1   
     2     1    63 1   
     3     1    64 1   
     4     1    65 1   
     5     2     4 1   
     6     2    21 1   
     7     2    22 2   
     8     3     4 2   
     9     3    23 1   
    10     3    69 1   
    11     4    24 1   
    12     5     6 1   
    13     5    29 1   
    14     5   123 2   
    15     6     7 ar  
    16     6    62 ar  
    17     7     8 ar  
    18     7    70 1   
    19     8    30 ar  
    20     8    71 1   
    21     9    10 1   
    22     9    14 1   
    23     9    15 1   
    24     9    32 1   
    25    10    33 1   
    26    10    72 1   
    27    10    73 1   
    28    11    14 ar  
    29    11    34 1   
    30    11    35 ar  
    31    12    13 ar  
    32    12    36 ar  
    33    12    74 1   
    34    13    14 ar  
    35    13    75 1   
    36    15    38 1   
    37    15    76 1   
    38    15    77 1   
    39    16    17 1   
    40    16    38 1   
    41    16    78 1   
    42    16    79 1   
    43    17    18 1   
    44    17    39 1   
    45    17    80 1   
    46    18    19 1   
    47    18    81 1   
    48    18    82 1   
    49    19    20 1   
    50    19    83 1   
    51    19    84 1   
    52    20    39 1   
    53    22    23 1   
    54    23   122 1   
    55    24    25 2   
    56    24    26 1   
    57    26    27 1   
    58    26    85 1   
    59    27    28 2   
    60    27    29 2   
    61    27    60 1   
    62    30    31 1   
    63    30    61 ar  
    64    31    32 1   
    65    32    86 1   
    66    32    87 1   
    67    33    34 1   
    68    33    88 1   
    69    33    89 1   
    70    34    90 1   
    71    34    91 1   
    72    35    36 ar  
    73    35    92 1   
    74    36    37 1   
    75    38    61 1   
    76    39    40 1   
    77    39    93 1   
    78    40    41 1   
    79    40    52 1   
    80    40    54 1   
    81    41    42 1   
    82    41    94 1   
    83    41    95 1   
    84    42    43 1   
    85    42    51 1   
    86    43    44 1   
    87    43    96 1   
    88    43    97 1   
    89    44    45 1   
    90    44    98 1   
    91    44    99 1   
    92    45    46 1   
    93    45    50 1   
    94    46    47 1   
    95    46   100 1   
    96    46   101 1   
    97    47    48 1   
    98    47   102 1   
    99    47   103 1   
   100    48    49 1   
   101    49    50 1   
   102    49   104 1   
   103    49   105 1   
   104    50    51 1   
   105    50   106 1   
   106    51   107 1   
   107    51   108 1   
   108    52    53 1   
   109    53   109 1   
   110    53   110 1   
   111    53   111 1   
   112    54    55 1   
   113    54    56 2   
   114    56    57 1   
   115    56   112 1   
   116    57    58 1   
   117    57   113 1   
   118    57   114 1   
   119    58    59 1   
   120    58    60 1   
   121    58   115 1   
   122    59   116 1   
   123    59   117 1   
   124    59   118 1   
   125    60   119 1   
   126    60   120 1   
   127    61    62 ar  
   128    62   121 1   
   129    66   122 1   
   130    67   122 1   
   131    68   122 1   
@<TRIPOS>SUBSTRUCTURE
     1 YKL         1 TEMP              0 ****  ****    0 ROOT
