@<TRIPOS>MOLECULE
YKN
   29    31     1     0     0
SMALL
No Charge or Current Charge


@<TRIPOS>ATOM
      1 F10         -0.4610     1.5580     0.8670 f          1 YKN      -0.066500
      2 C9          -0.1340     0.3220     0.4200 c3         1 YKN       0.327700
      3 F11         -0.6130    -0.5440     1.3440 f          1 YKN      -0.066500
      4 S12         -0.9360     0.0130    -1.2220 ss         1 YKN      -0.284300
      5 C13         -2.6600     0.2980    -0.8750 ca         1 YKN       0.236300
      6 N15         -3.3350    -0.6910    -0.2490 nb         1 YKN      -0.169000
      7 C16         -4.6390    -0.4720     0.0140 ca         1 YKN       0.143300
      8 C17         -5.3960    -1.5790     0.7230 c3         1 YKN      -0.152400
      9 C18         -5.2610     0.7350    -0.3490 ca         1 YKN      -0.221000
     10 C19         -4.4760     1.7010    -0.9980 ca         1 YKN       0.126900
     11 N20         -3.1730     1.4850    -1.2640 nb         1 YKN      -0.171000
     12 C8           1.3770     0.1750     0.2980 cc         1 YKN       0.443600
     13 N7           2.2760     1.1800     0.2230 nd         1 YKN      -0.509100
     14 C6           3.4590     0.4850     0.1110 ca         1 YKN       0.045400
     15 C5           4.7610     0.9930    -0.0030 ca         1 YKN      -0.036000
     16 C4           5.8290     0.0740    -0.1080 ca         1 YKN      -0.127000
     17 C3           5.5780    -1.3200    -0.0960 ca         1 YKN      -0.084000
     18 C2           4.2560    -1.8020     0.0200 ca         1 YKN      -0.091000
     19 C1           3.2260    -0.8590     0.1210 ca         1 YKN       0.039100
     20 O14          1.9020    -1.1150     0.2390 os         1 YKN      -0.255700
     21 H171        -5.1940    -1.5590     1.8010 hc         1 YKN       0.060367
     22 H172        -6.4780    -1.4760     0.5830 hc         1 YKN       0.060367
     23 H173        -5.1060    -2.5660     0.3440 hc         1 YKN       0.060367
     24 H18         -6.3110     0.9180    -0.1360 ha         1 YKN       0.137000
     25 H19         -4.8930     2.6580    -1.3090 h4         1 YKN       0.031100
     26 H5           4.9410     2.0650    -0.0110 ha         1 YKN       0.138000
     27 H4           6.8490     0.4390    -0.1970 ha         1 YKN       0.122000
     28 H3           6.4050    -2.0220    -0.1770 ha         1 YKN       0.121000
     29 H2           4.0430    -2.8680     0.0300 ha         1 YKN       0.139000
@<TRIPOS>BOND
     1     1     2 1   
     2     2     3 1   
     3     2     4 1   
     4     2    12 1   
     5     4     5 1   
     6     5     6 ar  
     7     5    11 ar  
     8     6     7 ar  
     9     7     8 1   
    10     7     9 ar  
    11     8    21 1   
    12     8    22 1   
    13     8    23 1   
    14     9    10 ar  
    15     9    24 1   
    16    10    11 ar  
    17    10    25 1   
    18    12    13 2   
    19    12    20 1   
    20    13    14 1   
    21    14    15 ar  
    22    14    19 ar  
    23    15    16 ar  
    24    15    26 1   
    25    16    17 ar  
    26    16    27 1   
    27    17    18 ar  
    28    17    28 1   
    29    18    19 ar  
    30    18    29 1   
    31    19    20 1   
@<TRIPOS>SUBSTRUCTURE
     1 YKN         1 TEMP              0 ****  ****    0 ROOT
