@<TRIPOS>MOLECULE
YKN
   29    31     1     0     0
SMALL
bcc


@<TRIPOS>ATOM
      1 F10         -0.2470     1.6350    -1.0880 f          1 YKN      -0.187800
      2 C9           0.0130     0.8850     0.0010 c3         1 YKN       0.522400
      3 F11         -0.2420     1.6600     1.0740 f          1 YKN      -0.187800
      4 S12         -0.9610    -0.6380     0.0210 ss         1 YKN      -0.236400
      5 C13         -2.6310    -0.0430     0.0050 ca         1 YKN       0.762300
      6 N15         -3.4860    -1.0470     0.0020 nb         1 YKN      -0.695000
      7 C16         -4.7830    -0.7370    -0.0030 ca         1 YKN       0.471600
      8 C17         -5.7580    -1.8640     0.0010 c3         1 YKN      -0.152400
      9 C18         -5.1820     0.5970    -0.0040 ca         1 YKN      -0.369600
     10 C19         -4.1880     1.5560    -0.0040 ca         1 YKN       0.455200
     11 N20         -2.8950     1.2440     0.0000 nb         1 YKN      -0.697000
     12 C8           1.4790     0.5460     0.0000 cc         1 YKN       0.443600
     13 N7           2.4280     1.3980    -0.0590 nd         1 YKN      -0.509100
     14 C6           3.5740     0.6220    -0.0300 ca         1 YKN       0.045400
     15 C5           4.9200     0.9680    -0.0680 ca         1 YKN      -0.054000
     16 C4           5.8340    -0.0710    -0.0210 ca         1 YKN      -0.145000
     17 C3           5.4260    -1.4100     0.0560 ca         1 YKN      -0.102000
     18 C2           4.0870    -1.7690     0.0910 ca         1 YKN      -0.109000
     19 C1           3.1970    -0.7140     0.0470 ca         1 YKN       0.039100
     20 O14          1.8380    -0.7450     0.0660 os         1 YKN      -0.255700
     21 H171        -5.6730    -2.4310     0.9290 hc         1 YKN       0.060367
     22 H172        -6.7820    -1.5100    -0.0930 hc         1 YKN       0.060367
     23 H173        -5.5480    -2.5540    -0.8160 hc         1 YKN       0.060367
     24 H18         -6.2260     0.8740    -0.0040 ha         1 YKN       0.155000
     25 H19         -4.4310     2.6110    -0.0110 h4         1 YKN       0.031100
     26 H5           5.2340     2.0000    -0.1380 ha         1 YKN       0.156000
     27 H4           6.8920     0.1520    -0.0440 ha         1 YKN       0.140000
     28 H3           6.1770    -2.1870     0.0850 ha         1 YKN       0.139000
     29 H2           3.7680    -2.8000     0.1470 ha         1 YKN       0.157000
@<TRIPOS>BOND
     1     1     2 1   
     2     2     3 1   
     3     2     4 1   
     4     2    12 1   
     5     4     5 1   
     6     5     6 ar  
     7     5    11 ar  
     8     6     7 ar  
     9     7     8 1   
    10     7     9 ar  
    11     8    21 1   
    12     8    22 1   
    13     8    23 1   
    14     9    10 ar  
    15     9    24 1   
    16    10    11 ar  
    17    10    25 1   
    18    12    13 2   
    19    12    20 1   
    20    13    14 1   
    21    14    15 ar  
    22    14    19 ar  
    23    15    16 ar  
    24    15    26 1   
    25    16    17 ar  
    26    16    27 1   
    27    17    18 ar  
    28    17    28 1   
    29    18    19 ar  
    30    18    29 1   
    31    19    20 1   
@<TRIPOS>SUBSTRUCTURE
     1 YKN         1 TEMP              0 ****  ****    0 ROOT
