@<TRIPOS>MOLECULE
YKO
   55    59     1     0     0
SMALL
abcg2


@<TRIPOS>ATOM
      1 C12        -20.5530   -13.1250     6.0820 c          1 YKO       0.536200
      2 C26        -27.4720   -13.0600    15.7060 cy         1 YKO      -0.085900
      3 C27        -28.6810   -13.3980    14.8050 cy         1 YKO      -0.081700
      4 C24        -25.1710   -13.3650    14.4220 c5         1 YKO       0.087000
      5 C30        -27.6960   -13.6080    13.6380 cy         1 YKO      -0.085900
      6 C10        -21.8010   -13.5640     8.1220 cc         1 YKO      -0.093400
      7 C14        -20.2480   -11.8540     6.6920 cc         1 YKO      -0.011700
      8 C01        -22.6100   -12.4930    16.1020 c3         1 YKO      -0.095100
      9 C02        -23.0200   -12.0260    14.7120 c3         1 YKO       0.189000
     10 C03        -22.3340   -12.7550    13.5770 ca         1 YKO      -0.130300
     11 C04        -21.7170   -13.9830    13.7220 ca         1 YKO      -0.110000
     12 C05        -21.1270   -14.6540    12.6370 ca         1 YKO      -0.166000
     13 C06        -21.1480   -14.1160    11.3690 ca         1 YKO      -0.067000
     14 C07        -21.7700   -12.8770    11.1760 ca         1 YKO      -0.090800
     15 C08        -21.9620   -12.0330    10.0330 cd         1 YKO      -0.152200
     16 C09        -21.5050   -12.3600     8.6810 cd         1 YKO      -0.005000
     17 C16        -20.6890   -11.4800     7.9110 cd         1 YKO      -0.076000
     18 C17        -22.6220   -10.9100    10.4810 cc         1 YKO      -0.051300
     19 C18        -23.1330    -9.6810     9.7690 c          1 YKO       0.720200
     20 C22        -22.3430   -12.2140    12.2830 ca         1 YKO      -0.056200
     21 C25        -26.6150   -12.8840    14.4410 cy         1 YKO       0.142000
     22 C28        -29.5470   -14.5730    15.2020 c3         1 YKO       0.160800
     23 C32        -25.2530   -11.0750    14.2220 c          1 YKO       0.692100
     24 F15        -19.4710   -11.0450     5.9580 f          1 YKO      -0.165500
     25 N11        -21.3400   -13.9060     6.8910 ns         1 YKO      -0.362100
     26 N21        -22.8400   -11.0340    11.8250 na         1 YKO      -0.191700
     27 N23        -24.4620   -12.1140    14.5510 n          1 YKO      -0.444800
     28 N29        -30.3080   -14.2710    16.4050 n8         1 YKO      -0.992200
     29 O13        -20.1700   -13.4940     4.9780 o          1 YKO      -0.586000
     30 O19        -23.6480    -8.8190    10.5080 o          1 YKO      -0.692500
     31 O20        -22.9990    -9.6550     8.5340 o          1 YKO      -0.692500
     32 O31        -26.5140   -11.5020    14.0650 os         1 YKO      -0.401100
     33 O33        -24.9420    -9.9130    14.0670 o          1 YKO      -0.530000
     34 H262       -27.1380   -13.9290    16.2790 hc         1 YKO       0.061950
     35 H261       -27.5460   -12.2040    16.3770 hc         1 YKO       0.061950
     36 H271       -29.3070   -12.5170    14.6440 hc         1 YKO       0.086700
     37 H241       -24.9190   -13.8720    13.4840 h1         1 YKO       0.061700
     38 H242       -24.9620   -14.0480    15.2460 h1         1 YKO       0.061700
     39 H302       -27.9460   -13.1900    12.6630 hc         1 YKO       0.061950
     40 H301       -27.4360   -14.6620    13.5090 hc         1 YKO       0.061950
     41 H101       -22.4190   -14.3040     8.6090 h4         1 YKO       0.197000
     42 H013       -23.0940   -11.8710    16.8540 hc         1 YKO       0.037700
     43 H012       -22.8890   -13.5300    16.2930 hc         1 YKO       0.037700
     44 H011       -21.5320   -12.4070    16.2310 hc         1 YKO       0.037700
     45 H021       -22.7680   -10.9650    14.6390 h1         1 YKO       0.085700
     46 H041       -21.6770   -14.4520    14.6970 ha         1 YKO       0.091000
     47 H051       -20.6490   -15.6100    12.8090 ha         1 YKO       0.093000
     48 H061       -20.6880   -14.6420    10.5410 ha         1 YKO       0.104000
     49 H161       -20.4110   -10.5150     8.3130 ha         1 YKO       0.222000
     50 H281       -30.2500   -14.7860    14.3930 h1         1 YKO       0.026700
     51 H282       -28.9040   -15.4620    15.2960 h1         1 YKO       0.026700
     52 H111       -21.5950   -14.8130     6.5230 hn         1 YKO       0.311500
     53 H211       -23.3230   -10.3230    12.3560 hn         1 YKO       0.388000
     54 H291       -30.8970   -15.0610    16.6390 hn         1 YKO       0.389000
     55 H1         -29.6720   -14.1690    17.1880 hn         1 YKO       0.389000
@<TRIPOS>BOND
     1     1     7 1   
     2     1    25 1   
     3     1    29 2   
     4     2     3 1   
     5     2    21 1   
     6     2    34 1   
     7     2    35 1   
     8     3     5 1   
     9     3    22 1   
    10     3    36 1   
    11     4    21 1   
    12     4    27 1   
    13     4    37 1   
    14     4    38 1   
    15     5    21 1   
    16     5    39 1   
    17     5    40 1   
    18     6    16 2   
    19     6    25 1   
    20     6    41 1   
    21     7    17 2   
    22     7    24 1   
    23     8     9 1   
    24     8    42 1   
    25     8    43 1   
    26     8    44 1   
    27     9    10 1   
    28     9    27 1   
    29     9    45 1   
    30    10    11 ar  
    31    10    20 ar  
    32    11    12 ar  
    33    11    46 1   
    34    12    13 ar  
    35    12    47 1   
    36    13    14 ar  
    37    13    48 1   
    38    14    15 1   
    39    14    20 ar  
    40    15    16 1   
    41    15    18 2   
    42    16    17 1   
    43    17    49 1   
    44    18    19 1   
    45    18    26 1   
    46    19    30 1   
    47    19    31 1   
    48    20    26 1   
    49    21    32 1   
    50    22    28 1   
    51    22    50 1   
    52    22    51 1   
    53    23    27 1   
    54    23    32 1   
    55    23    33 2   
    56    25    52 1   
    57    26    53 1   
    58    28    54 1   
    59    28    55 1   
@<TRIPOS>SUBSTRUCTURE
     1 YKO         1 TEMP              0 ****  ****    0 ROOT
