@<TRIPOS>MOLECULE
YKO
   55    59     1     0     0
SMALL
No Charge or Current Charge


@<TRIPOS>ATOM
      1 C12        -19.9340   -12.6130     6.0110 c          1 YKO       0.536200
      2 C26        -27.5520   -13.1250    15.9280 cy         1 YKO      -0.085900
      3 C27        -28.8420   -13.3960    15.0790 cy         1 YKO      -0.081700
      4 C24        -25.2630   -13.8010    14.6630 c5         1 YKO       0.087000
      5 C30        -27.9020   -14.2650    14.1760 cy         1 YKO      -0.085900
      6 C10        -21.0050   -13.4270     8.0660 cc         1 YKO      -0.093400
      7 C14        -20.1200   -11.2510     6.5740 cc         1 YKO      -0.011700
      8 C01        -22.5870   -12.6310    15.8900 c3         1 YKO      -0.095100
      9 C02        -23.1420   -12.2850    14.4890 c3         1 YKO       0.189000
     10 C03        -22.4040   -12.9800    13.3330 ca         1 YKO      -0.130300
     11 C04        -21.7560   -14.2310    13.4870 ca         1 YKO      -0.110000
     12 C05        -21.0450   -14.8120    12.4140 ca         1 YKO      -0.166000
     13 C06        -20.9860   -14.1720    11.1620 ca         1 YKO      -0.067000
     14 C07        -21.6900   -12.9650    11.0010 ca         1 YKO      -0.090800
     15 C08        -21.8100   -12.0250     9.8890 cd         1 YKO      -0.152200
     16 C09        -21.1970   -12.1530     8.5750 cd         1 YKO      -0.005000
     17 C16        -20.7200   -11.0270     7.8000 cd         1 YKO      -0.076000
     18 C17        -22.5930   -10.9170    10.2880 cc         1 YKO      -0.051300
     19 C18        -23.2010    -9.7920     9.4950 c          1 YKO       0.720200
     20 C22        -22.3440   -12.3860    12.0560 ca         1 YKO      -0.056200
     21 C25        -26.7390   -13.2990    14.5950 cy         1 YKO       0.142000
     22 C28        -30.0450   -14.0750    15.7500 c3         1 YKO       0.160800
     23 C32        -25.4390   -11.5730    13.8390 c          1 YKO       0.692100
     24 F15        -19.6620   -10.2130     5.8500 f          1 YKO      -0.165500
     25 N11        -20.4010   -13.6130     6.8270 ns         1 YKO      -0.362100
     26 N21        -22.8670   -11.1720    11.6490 na         1 YKO      -0.191700
     27 N23        -24.5980   -12.5140    14.4080 n          1 YKO      -0.444800
     28 N29        -30.7540   -13.2520    16.7440 n8         1 YKO      -0.992200
     29 O13        -19.4150   -12.8650     4.9310 o          1 YKO      -0.586000
     30 O19        -23.7870    -8.9250    10.1290 o          1 YKO      -0.692500
     31 O20        -23.2080    -9.8050     8.2730 o          1 YKO      -0.692500
     32 O31        -26.6900   -12.0890    13.8240 os         1 YKO      -0.401100
     33 O33        -25.1150   -10.4790    13.4030 o          1 YKO      -0.530000
     34 H262       -27.3390   -13.8850    16.6880 hc         1 YKO       0.061950
     35 H261       -27.4880   -12.1390    16.4000 hc         1 YKO       0.061950
     36 H271       -29.2150   -12.5010    14.5660 hc         1 YKO       0.086700
     37 H241       -25.0180   -14.5320    13.8810 h1         1 YKO       0.061700
     38 H242       -24.9920   -14.2270    15.6370 h1         1 YKO       0.061700
     39 H302       -28.1460   -14.2820    13.1090 hc         1 YKO       0.061950
     40 H301       -27.7710   -15.3000    14.5160 hc         1 YKO       0.061950
     41 H101       -21.3480   -14.3530     8.5100 h4         1 YKO       0.197000
     42 H013       -23.0700   -12.0060    16.6500 hc         1 YKO       0.037700
     43 H012       -22.7680   -13.6790    16.1550 hc         1 YKO       0.037700
     44 H011       -21.5080   -12.4420    15.9320 hc         1 YKO       0.037700
     45 H021       -22.9590   -11.2080    14.3770 h1         1 YKO       0.085700
     46 H041       -21.7780   -14.7570    14.4370 ha         1 YKO       0.091000
     47 H051       -20.5250   -15.7550    12.5610 ha         1 YKO       0.093000
     48 H061       -20.3870   -14.6070    10.3690 ha         1 YKO       0.104000
     49 H161       -20.7780   -10.0150     8.1810 ha         1 YKO       0.222000
     50 H281       -30.7570   -14.3630    14.9650 h1         1 YKO       0.026700
     51 H282       -29.6940   -14.9910    16.2460 h1         1 YKO       0.026700
     52 H111       -20.2880   -14.5520     6.4610 hn         1 YKO       0.311500
     53 H211       -23.4850   -10.5930    12.2130 hn         1 YKO       0.388000
     54 H291       -31.4920   -13.8170    17.1820 hn         1 YKO       0.389000
     55 H1         -30.1140   -13.0430    17.5190 hn         1 YKO       0.389000
@<TRIPOS>BOND
     1     1     7 1   
     2     1    25 1   
     3     1    29 2   
     4     2     3 1   
     5     2    21 1   
     6     2    34 1   
     7     2    35 1   
     8     3     5 1   
     9     3    22 1   
    10     3    36 1   
    11     4    21 1   
    12     4    27 1   
    13     4    37 1   
    14     4    38 1   
    15     5    21 1   
    16     5    39 1   
    17     5    40 1   
    18     6    16 2   
    19     6    25 1   
    20     6    41 1   
    21     7    17 2   
    22     7    24 1   
    23     8     9 1   
    24     8    42 1   
    25     8    43 1   
    26     8    44 1   
    27     9    10 1   
    28     9    27 1   
    29     9    45 1   
    30    10    11 ar  
    31    10    20 ar  
    32    11    12 ar  
    33    11    46 1   
    34    12    13 ar  
    35    12    47 1   
    36    13    14 ar  
    37    13    48 1   
    38    14    15 1   
    39    14    20 ar  
    40    15    16 1   
    41    15    18 2   
    42    16    17 1   
    43    17    49 1   
    44    18    19 1   
    45    18    26 1   
    46    19    30 1   
    47    19    31 1   
    48    20    26 1   
    49    21    32 1   
    50    22    28 1   
    51    22    50 1   
    52    22    51 1   
    53    23    27 1   
    54    23    32 1   
    55    23    33 2   
    56    25    52 1   
    57    26    53 1   
    58    28    54 1   
    59    28    55 1   
@<TRIPOS>SUBSTRUCTURE
     1 YKO         1 TEMP              0 ****  ****    0 ROOT
