@<TRIPOS>MOLECULE
YKR
   38    39     1     0     0
SMALL
abcg2


@<TRIPOS>ATOM
      1 C1          -3.5610    -0.1310    -0.1860 c6         1 YKR       0.388300
      2 O1          -3.5680    -0.1120    -1.5760 oh         1 YKR      -0.657000
      3 C2          -3.0180     1.1970     0.3340 c6         1 YKR       0.114500
      4 N2          -3.7710     2.3140    -0.2090 n8         1 YKR      -0.980200
      5 C3          -1.5390     1.3270    -0.0260 c6         1 YKR       0.158300
      6 O3          -0.9750     2.4890     0.5460 oh         1 YKR      -0.730000
      7 C4          -0.7700     0.1190     0.4920 c6         1 YKR       0.142300
      8 O4           0.5580     0.1380     0.0210 os         1 YKR      -0.452000
      9 C5          -1.4270    -1.1800     0.0130 c6         1 YKR       0.163300
     10 O5          -2.8060    -1.1930     0.3360 os         1 YKR      -0.473000
     11 C6          -0.8000    -2.3910     0.6720 c3         1 YKR       0.168600
     12 O6          -1.3570    -3.5560     0.1130 oh         1 YKR      -0.709000
     13 CAL          4.9380     1.2160    -0.5520 ca         1 YKR      -0.115000
     14 CAM          3.6870     1.4050     0.0240 ca         1 YKR      -0.088500
     15 CAN          5.3960    -0.0690    -0.8070 ca         1 YKR      -0.103000
     16 CAO          2.8880     0.3180     0.3600 ca         1 YKR      -0.089300
     17 CAP          4.6020    -1.1620    -0.4800 ca         1 YKR      -0.115000
     18 CAU          1.5320     0.5170     0.9730 c3         1 YKR       0.211900
     19 CBC          3.3560    -0.9680     0.0980 ca         1 YKR      -0.088500
     20 H1          -4.5720    -0.2970     0.2080 h2         1 YKR       0.058700
     21 H2          -3.0880     1.1340     1.4320 h1         1 YKR       0.037700
     22 HN2         -4.7560     2.1880    -0.0090 hn         1 YKR       0.396500
     23 HN2A        -3.5100     3.1560     0.2870 hn         1 YKR       0.396500
     24 H3          -1.4420     1.3570    -1.1190 h1         1 YKR       0.078700
     25 HO3         -1.0880     3.2200    -0.0680 ho         1 YKR       0.514000
     26 H4          -0.7950     0.1360     1.5930 h1         1 YKR       0.052700
     27 H5          -1.2840    -1.2610    -1.0740 h1         1 YKR       0.075700
     28 H6           0.2830    -2.3470     0.5130 h1         1 YKR       0.028700
     29 H6A         -0.9680    -2.3370     1.7580 h1         1 YKR       0.028700
     30 HO6         -0.8750    -4.3110     0.4600 ho         1 YKR       0.501000
     31 HAM          3.3320     2.4100     0.2170 ha         1 YKR       0.111500
     32 HAN          6.3690    -0.2210    -1.2570 ha         1 YKR       0.112000
     33 HAP          4.9560    -2.1670    -0.6730 ha         1 YKR       0.112500
     34 HAU          1.4050     1.5590     1.2790 h1         1 YKR       0.035700
     35 HAUA         1.4420    -0.1030     1.8750 h1         1 YKR       0.035700
     36 HBC          2.7470    -1.8260     0.3580 ha         1 YKR       0.111500
     37 H7          -4.0500    -0.8820    -1.8950 ho         1 YKR       0.455000
     38 HAL          5.5500     2.0720    -0.8040 ha         1 YKR       0.112500
@<TRIPOS>BOND
     1     1     2 1   
     2     1     3 1   
     3     1    10 1   
     4     1    20 1   
     5     2    37 1   
     6     3     4 1   
     7     3     5 1   
     8     3    21 1   
     9     4    22 1   
    10     4    23 1   
    11     5     6 1   
    12     5     7 1   
    13     5    24 1   
    14     6    25 1   
    15     7     8 1   
    16     7     9 1   
    17     7    26 1   
    18     8    18 1   
    19     9    10 1   
    20     9    11 1   
    21     9    27 1   
    22    11    12 1   
    23    11    28 1   
    24    11    29 1   
    25    12    30 1   
    26    13    14 ar  
    27    13    15 ar  
    28    13    38 1   
    29    14    16 ar  
    30    14    31 1   
    31    15    17 ar  
    32    15    32 1   
    33    16    18 1   
    34    16    19 ar  
    35    17    19 ar  
    36    17    33 1   
    37    18    34 1   
    38    18    35 1   
    39    19    36 1   
@<TRIPOS>SUBSTRUCTURE
     1 YKR         1 TEMP              0 ****  ****    0 ROOT
