@<TRIPOS>MOLECULE
YKR
   38    39     1     0     0
SMALL
No Charge or Current Charge


@<TRIPOS>ATOM
      1 C1          -3.6700    -0.0110    -0.0290 c6         1 YKR       0.388300
      2 O1          -3.7850     0.1600    -1.4390 oh         1 YKR      -0.657000
      3 C2          -2.9800     1.2200     0.6630 c6         1 YKR       0.114500
      4 N2          -3.6680     2.5450     0.4780 n8         1 YKR      -0.980200
      5 C3          -1.5040     1.3400     0.1970 c6         1 YKR       0.158300
      6 O3          -0.9750     2.5040     0.8500 oh         1 YKR      -0.730000
      7 C4          -0.7300     0.0030     0.4670 c6         1 YKR       0.142300
      8 O4           0.6480     0.0170     0.0010 os         1 YKR      -0.452000
      9 C5          -1.5050    -1.1590    -0.2320 c6         1 YKR       0.163300
     10 O5          -2.8960    -1.2010     0.2100 os         1 YKR      -0.473000
     11 C6          -0.8570    -2.5540     0.0570 c3         1 YKR       0.168600
     12 O6          -1.5730    -3.6540    -0.5410 oh         1 YKR      -0.709000
     13 CAL          4.9340     0.6990    -1.1980 ca         1 YKR      -0.115000
     14 CAM          3.6370     1.0870    -0.8190 ca         1 YKR      -0.088500
     15 CAN          5.5950    -0.3260    -0.4990 ca         1 YKR      -0.103000
     16 CAO          2.9930     0.4530     0.2630 ca         1 YKR      -0.089300
     17 CAP          4.9570    -0.9630     0.5790 ca         1 YKR      -0.115000
     18 CAU          1.5890     0.8720     0.6750 c3         1 YKR       0.211900
     19 CBC          3.6600    -0.5750     0.9580 ca         1 YKR      -0.088500
     20 H1          -4.6730    -0.1470     0.4050 h2         1 YKR       0.058700
     21 H2          -2.9740     1.0260     1.7470 h1         1 YKR       0.037700
     22 HN2         -3.9340     2.6250    -0.5130 hn         1 YKR       0.396500
     23 HN2A        -4.5790     2.5190     0.9550 hn         1 YKR       0.396500
     24 H3          -1.5060     1.5040    -0.8920 h1         1 YKR       0.078700
     25 HO3         -1.7990     3.0500     0.9520 ho         1 YKR       0.514000
     26 H4          -0.7240    -0.1920     1.5490 h1         1 YKR       0.052700
     27 H5          -1.4770    -1.0010    -1.3200 h1         1 YKR       0.075700
     28 H6           0.1760    -2.5390    -0.3160 h1         1 YKR       0.028700
     29 H6A         -0.8070    -2.6870     1.1460 h1         1 YKR       0.028700
     30 HO6         -1.1280    -4.4820    -0.2450 ho         1 YKR       0.501000
     31 HAM          3.1310     1.8790    -1.3670 ha         1 YKR       0.111500
     32 HAN          6.5980    -0.6260    -0.7930 ha         1 YKR       0.112000
     33 HAP          5.4670    -1.7570     1.1200 ha         1 YKR       0.112500
     34 HAU          1.4350     1.9240     0.4020 h1         1 YKR       0.035700
     35 HAUA         1.4890     0.7810     1.7650 h1         1 YKR       0.035700
     36 HBC          3.1710    -1.0740     1.7920 ha         1 YKR       0.111500
     37 H7          -4.1390    -0.6930    -1.7660 ho         1 YKR       0.455000
     38 HAL          5.4260     1.1910    -2.0340 ha         1 YKR       0.112500
@<TRIPOS>BOND
     1     1     2 1   
     2     1     3 1   
     3     1    10 1   
     4     1    20 1   
     5     2    37 1   
     6     3     4 1   
     7     3     5 1   
     8     3    21 1   
     9     4    22 1   
    10     4    23 1   
    11     5     6 1   
    12     5     7 1   
    13     5    24 1   
    14     6    25 1   
    15     7     8 1   
    16     7     9 1   
    17     7    26 1   
    18     8    18 1   
    19     9    10 1   
    20     9    11 1   
    21     9    27 1   
    22    11    12 1   
    23    11    28 1   
    24    11    29 1   
    25    12    30 1   
    26    13    14 ar  
    27    13    15 ar  
    28    13    38 1   
    29    14    16 ar  
    30    14    31 1   
    31    15    17 ar  
    32    15    32 1   
    33    16    18 1   
    34    16    19 ar  
    35    17    19 ar  
    36    17    33 1   
    37    18    34 1   
    38    18    35 1   
    39    19    36 1   
@<TRIPOS>SUBSTRUCTURE
     1 YKR         1 TEMP              0 ****  ****    0 ROOT
