@<TRIPOS>MOLECULE
YKU
   44    47     1     0     0
SMALL
No Charge or Current Charge


@<TRIPOS>ATOM
      1 C10        130.8270   151.2450   105.2500 cc         1 YKU      -0.025400
      2 N12        131.5860   152.3990   105.4530 ns         1 YKU      -0.412100
      3 C13        132.3010   153.1520   104.5390 c          1 YKU       0.622700
      4 C15        133.0310   154.3610   105.0930 ca         1 YKU      -0.159600
      5 C17        133.6980   155.8340   106.9350 ca         1 YKU      -0.121000
      6 C20        133.7700   155.1820   104.2080 ca         1 YKU      -0.020000
      7 C21        135.2080   157.1340   103.7630 cg         1 YKU       0.318000
      8 C24        131.3500   150.8310   108.2720 ca         1 YKU      -0.098500
      9 C26        130.1440   151.3550   110.3210 ca         1 YKU      -0.105000
     10 C28        128.9210   151.0070   108.2440 ca         1 YKU      -0.098500
     11 C01        128.1410   146.5580   101.6470 ca         1 YKU      -0.104000
     12 C02        128.0180   146.3530   103.0300 ca         1 YKU      -0.115500
     13 C03        128.5370   147.2970   103.9330 ca         1 YKU      -0.089000
     14 C04        129.1940   148.4610   103.4650 ca         1 YKU      -0.117500
     15 C05        129.3000   148.6580   102.0690 ca         1 YKU      -0.089000
     16 C06        128.7800   147.7120   101.1680 ca         1 YKU      -0.115500
     17 C07        129.7250   149.4670   104.4150 cd         1 YKU       0.309500
     18 C11        130.5630   150.5710   104.0920 cd         1 YKU      -0.185000
     19 C16        133.0050   154.7040   106.4690 ca         1 YKU      -0.067000
     20 C18        134.4260   156.6390   106.0460 ca         1 YKU      -0.051000
     21 C19        134.4640   156.3140   104.6780 ca         1 YKU      -0.022000
     22 C23        130.1330   150.7770   107.5600 ca         1 YKU       0.004800
     23 C25        131.3550   151.1210   109.6480 ca         1 YKU      -0.106000
     24 C27        128.9280   151.2970   109.6200 ca         1 YKU      -0.106000
     25 N08        129.4530   149.4050   105.7110 nc         1 YKU      -0.495800
     26 N09        130.1270   150.5010   106.1910 na         1 YKU       0.221000
     27 N22        135.8110   157.7950   103.0120 n1         1 YKU      -0.437000
     28 O14        132.3500   152.8670   103.3500 o          1 YKU      -0.556100
     29 H1         131.6320   152.7570   106.3980 hn         1 YKU       0.335500
     30 H2         133.6710   156.0870   107.9930 ha         1 YKU       0.126000
     31 H3         133.8080   154.9420   103.1460 ha         1 YKU       0.148000
     32 H4         132.2920   150.6420   107.7600 ha         1 YKU       0.135500
     33 H5         130.1480   151.5790   111.3860 ha         1 YKU       0.118000
     34 H6         127.9760   150.9660   107.7060 ha         1 YKU       0.135500
     35 H7         127.7390   145.8270   100.9490 ha         1 YKU       0.112000
     36 H8         127.5200   145.4610   103.4040 ha         1 YKU       0.112000
     37 H9         128.4280   147.1140   104.9990 ha         1 YKU       0.120000
     38 H10        129.7800   149.5460   101.6680 ha         1 YKU       0.120000
     39 H11        128.8710   147.8760   100.0970 ha         1 YKU       0.112000
     40 H12        130.9260   150.8240   103.1050 ha         1 YKU       0.154000
     41 H13        132.4560   154.1100   107.1950 ha         1 YKU       0.121000
     42 H14        134.9590   157.5110   106.4200 ha         1 YKU       0.131000
     43 H15        132.2960   151.1620   110.1920 ha         1 YKU       0.120500
     44 H16        127.9900   151.4760   110.1420 ha         1 YKU       0.120500
@<TRIPOS>BOND
     1     1     2 1   
     2     1    18 2   
     3     1    26 1   
     4     2     3 1   
     5     2    29 1   
     6     3     4 1   
     7     3    28 2   
     8     4     6 ar  
     9     4    19 ar  
    10     5    19 ar  
    11     5    20 ar  
    12     5    30 1   
    13     6    21 ar  
    14     6    31 1   
    15     7    21 1   
    16     7    27 3   
    17     8    22 ar  
    18     8    23 ar  
    19     8    32 1   
    20     9    23 ar  
    21     9    24 ar  
    22     9    33 1   
    23    10    22 ar  
    24    10    24 ar  
    25    10    34 1   
    26    11    12 ar  
    27    11    16 ar  
    28    11    35 1   
    29    12    13 ar  
    30    12    36 1   
    31    13    14 ar  
    32    13    37 1   
    33    14    15 ar  
    34    14    17 1   
    35    15    16 ar  
    36    15    38 1   
    37    16    39 1   
    38    17    18 1   
    39    17    25 2   
    40    18    40 1   
    41    19    41 1   
    42    20    21 ar  
    43    20    42 1   
    44    22    26 1   
    45    23    43 1   
    46    24    44 1   
    47    25    26 1   
@<TRIPOS>SUBSTRUCTURE
     1 YKU         1 TEMP              0 ****  ****    0 ROOT
