@<TRIPOS>MOLECULE
YKU
   44    47     1     0     0
SMALL
abcg2


@<TRIPOS>ATOM
      1 C10        130.6520   151.4050   104.9580 cc         1 YKU      -0.025400
      2 N12        131.2170   152.6550   105.1940 ns         1 YKU      -0.412100
      3 C13        132.5400   152.9060   105.0100 c          1 YKU       0.622700
      4 C15        132.9900   154.2770   105.3960 ca         1 YKU      -0.159600
      5 C17        132.8920   156.2330   106.8070 ca         1 YKU      -0.121000
      6 C20        134.0700   154.8240   104.7140 ca         1 YKU      -0.020000
      7 C21        135.6350   156.6580   104.3580 cg         1 YKU       0.318000
      8 C24        131.7370   151.0620   107.8810 ca         1 YKU      -0.098500
      9 C26        130.7760   151.2070   110.0840 ca         1 YKU      -0.105000
     10 C28        129.3700   150.7040   108.1970 ca         1 YKU      -0.098500
     11 C01        127.8660   146.5500   101.8220 ca         1 YKU      -0.104000
     12 C02        127.7220   146.5300   103.2040 ca         1 YKU      -0.115500
     13 C03        128.3060   147.5170   103.9820 ca         1 YKU      -0.089000
     14 C04        129.0480   148.5420   103.3920 ca         1 YKU      -0.117500
     15 C05        129.1870   148.5540   102.0050 ca         1 YKU      -0.089000
     16 C06        128.6010   147.5660   101.2270 ca         1 YKU      -0.115500
     17 C07        129.6640   149.5870   104.2150 cd         1 YKU       0.309500
     18 C11        130.2530   150.7980   103.7980 cd         1 YKU      -0.185000
     19 C16        132.4100   154.9820   106.4480 ca         1 YKU      -0.067000
     20 C18        133.9510   156.7950   106.1180 ca         1 YKU      -0.051000
     21 C19        134.5370   156.0850   105.0690 ca         1 YKU      -0.022000
     22 C23        130.4790   150.7830   107.3650 ca         1 YKU       0.004800
     23 C25        131.8790   151.2830   109.2440 ca         1 YKU      -0.106000
     24 C27        129.5240   150.9100   109.5590 ca         1 YKU      -0.106000
     25 N08        129.7080   149.4760   105.5330 nc         1 YKU      -0.495800
     26 N09        130.3140   150.5700   105.9760 na         1 YKU       0.221000
     27 N22        136.5200   157.1250   103.7880 n1         1 YKU      -0.437000
     28 O14        133.3140   152.0780   104.5750 o          1 YKU      -0.556100
     29 H1         130.5910   153.4100   105.4350 hn         1 YKU       0.335500
     30 H2         132.4410   156.7680   107.6310 ha         1 YKU       0.126000
     31 H3         134.5380   154.2800   103.9050 ha         1 YKU       0.148000
     32 H4         132.6050   151.0810   107.2360 ha         1 YKU       0.135500
     33 H5         130.8920   151.3730   111.1470 ha         1 YKU       0.118000
     34 H6         128.3950   150.4870   107.7800 ha         1 YKU       0.135500
     35 H7         127.4080   145.7800   101.2150 ha         1 YKU       0.112000
     36 H8         127.1480   145.7450   103.6780 ha         1 YKU       0.112000
     37 H9         128.1790   147.4940   105.0570 ha         1 YKU       0.120000
     38 H10        129.7630   149.3330   101.5210 ha         1 YKU       0.120000
     39 H11        128.7210   147.5910   100.1510 ha         1 YKU       0.112000
     40 H12        130.3550   151.1930   102.8010 ha         1 YKU       0.154000
     41 H13        131.5930   154.5580   107.0180 ha         1 YKU       0.121000
     42 H14        134.3270   157.7720   106.3900 ha         1 YKU       0.131000
     43 H15        132.8570   151.5020   109.6490 ha         1 YKU       0.120500
     44 H16        128.6620   150.8480   110.2100 ha         1 YKU       0.120500
@<TRIPOS>BOND
     1     1     2 1   
     2     1    18 2   
     3     1    26 1   
     4     2     3 1   
     5     2    29 1   
     6     3     4 1   
     7     3    28 2   
     8     4     6 ar  
     9     4    19 ar  
    10     5    19 ar  
    11     5    20 ar  
    12     5    30 1   
    13     6    21 ar  
    14     6    31 1   
    15     7    21 1   
    16     7    27 3   
    17     8    22 ar  
    18     8    23 ar  
    19     8    32 1   
    20     9    23 ar  
    21     9    24 ar  
    22     9    33 1   
    23    10    22 ar  
    24    10    24 ar  
    25    10    34 1   
    26    11    12 ar  
    27    11    16 ar  
    28    11    35 1   
    29    12    13 ar  
    30    12    36 1   
    31    13    14 ar  
    32    13    37 1   
    33    14    15 ar  
    34    14    17 1   
    35    15    16 ar  
    36    15    38 1   
    37    16    39 1   
    38    17    18 1   
    39    17    25 2   
    40    18    40 1   
    41    19    41 1   
    42    20    21 ar  
    43    20    42 1   
    44    22    26 1   
    45    23    43 1   
    46    24    44 1   
    47    25    26 1   
@<TRIPOS>SUBSTRUCTURE
     1 YKU         1 TEMP              0 ****  ****    0 ROOT
