@<TRIPOS>MOLECULE
YKX
   98   104     1     0     0
SMALL
No Charge or Current Charge


@<TRIPOS>ATOM
      1 C1         -24.8330    59.4120     7.4460 c3         1 YKX       0.150900
      2 C3         -23.1220    58.3870     6.0320 cc         1 YKX       0.554300
      3 C7         -21.8860    57.4500     4.4780 cd         1 YKX      -0.092000
      4 C8         -21.8360    57.9240     5.7640 cc         1 YKX      -0.314600
      5 C15        -15.9670    56.0400     6.1020 c          1 YKX       0.751100
      6 C17        -15.1540    55.6770     4.8800 ca         1 YKX      -0.099600
      7 C18        -15.7280    54.9890     3.7930 ca         1 YKX      -0.072000
      8 C19        -14.9380    54.6370     2.6890 ca         1 YKX      -0.120000
      9 C23        -10.4390    55.1600     1.6230 c6         1 YKX      -0.033700
     10 C24         -9.1970    54.6770     2.4360 c6         1 YKX      -0.070400
     11 C27         -8.7030    55.6410    -0.2540 ca         1 YKX      -0.056300
     12 C31        -10.7550    55.9710    -2.1560 ca         1 YKX      -0.110000
     13 C32        -11.0730    55.6660    -0.8220 ca         1 YKX      -0.094000
     14 C33        -10.0580    55.4810     0.1470 ca         1 YKX      -0.073300
     15 C34        -11.0310    56.4520     2.2600 c3         1 YKX       0.223800
     16 C36        -11.0060    57.0290     4.7070 c3         1 YKX       0.229800
     17 C37        -11.3990    58.5310     4.7740 c5         1 YKX      -0.133700
     18 C39        -10.6530    59.4720     3.7890 c5         1 YKX      -0.111400
     19 C40        -11.0290    60.8270     4.4190 c5         1 YKX       0.150600
     20 O41        -10.7780    60.6080     5.8190 os         1 YKX      -0.430000
     21 O2         -23.4870    58.9440     7.2280 os         1 YKX      -0.413300
     22 N4         -23.9940    58.2600     5.0570 nd         1 YKX      -0.613800
     23 N5         -23.2130    57.6670     4.0710 na         1 YKX       0.155800
     24 C9         -20.6900    57.9560     6.6840 c          1 YKX       0.690700
     25 O10        -20.7220    58.4100     7.8150 o          1 YKX      -0.546100
     26 N11        -19.5580    57.4420     6.1400 ns         1 YKX      -0.549300
     27 S12        -18.0770    57.2420     6.8770 s6         1 YKX       0.990300
     28 O13        -18.2310    56.6560     8.2110 o          1 YKX      -0.465000
     29 N14        -17.2820    56.3680     5.8240 ne         1 YKX      -0.627900
     30 C20        -13.5780    54.9860     2.6340 ca         1 YKX       0.078100
     31 O21        -12.8690    54.5040     1.5460 os         1 YKX      -0.358100
     32 C22        -11.5180    54.0220     1.7070 c3         1 YKX       0.169600
     33 C25         -7.9520    55.5520     2.2020 c6         1 YKX      -0.071400
     34 C26         -7.5340    55.4770     0.7230 c6         1 YKX      -0.035100
     35 C28         -8.3970    55.9420    -1.5960 ca         1 YKX      -0.112000
     36 C29         -9.4170    56.1040    -2.5430 ca         1 YKX       0.126000
     37 Cl30        -9.0170    56.4840    -4.2130 cl         1 YKX      -0.206000
     38 N35        -11.6550    56.2880     3.5940 nh         1 YKX      -0.819400
     39 C42        -11.0960    59.2270     6.1450 c5         1 YKX       0.147300
     40 C44        -12.2630    59.1380     7.1920 c3         1 YKX       0.180500
     41 O46        -11.7700    59.4490     8.5230 os         1 YKX      -0.427000
     42 C47        -10.9470    58.4470     9.1520 c3         1 YKX       0.142900
     43 C48        -13.4660    60.0360     6.8800 c2         1 YKX       0.123300
     44 F49        -13.4210    61.2450     7.4620 f          1 YKX      -0.165500
     45 C50        -14.5020    59.6690     6.1050 c2         1 YKX      -0.275200
     46 C51        -15.7460    60.4900     5.8040 c3         1 YKX      -0.025200
     47 C52        -17.0260    59.6210     5.6960 c3         1 YKX      -0.027700
     48 C54        -18.2310    60.4710     5.2280 c3         1 YKX      -0.095100
     49 C55        -17.3210    58.8760     7.0350 c3         1 YKX      -0.276400
     50 C56        -12.9860    55.7580     3.6860 ca         1 YKX       0.262000
     51 C57        -13.7930    56.0450     4.8130 ca         1 YKX      -0.129000
     52 H1         -24.9340    59.8240     8.4580 h1         1 YKX       0.050033
     53 H2         -25.0940    60.2010     6.7300 h1         1 YKX       0.050033
     54 H3         -25.5550    58.5920     7.3410 h1         1 YKX       0.050033
     55 H4         -24.1880    58.2390     2.2940 h1         1 YKX       0.065367
     56 H5         -23.0150    56.9010     2.1150 h1         1 YKX       0.065367
     57 H6         -24.5970    56.6030     2.8940 h1         1 YKX       0.065367
     58 H7         -21.1420    56.9970     3.8310 h4         1 YKX       0.159000
     59 H8         -16.7760    54.6960     3.8150 ha         1 YKX       0.133000
     60 H9         -15.3780    54.0660     1.8760 ha         1 YKX       0.126000
     61 H10         -9.4360    54.6580     3.5070 hc         1 YKX       0.050700
     62 H11         -8.9530    53.6400     2.1620 hc         1 YKX       0.050700
     63 H12        -11.5470    56.1060    -2.8880 ha         1 YKX       0.130000
     64 H13        -12.1220    55.5820    -0.5530 ha         1 YKX       0.133000
     65 H14        -10.2380    57.2080     2.2970 h1         1 YKX       0.053200
     66 H15        -11.7830    56.8650     1.5750 h1         1 YKX       0.053200
     67 H16        -11.2450    56.5450     5.6630 h1         1 YKX       0.055200
     68 H17         -9.9130    56.9580     4.6160 h1         1 YKX       0.055200
     69 H18        -12.4710    58.5760     4.5610 hc         1 YKX       0.073700
     70 H19        -11.0100    59.3830     2.7570 hc         1 YKX       0.056200
     71 H20         -9.5690    59.3110     3.7920 hc         1 YKX       0.056200
     72 H21        -10.4190    61.6620     4.0490 h1         1 YKX       0.051700
     73 H22        -12.0920    61.0660     4.2750 h1         1 YKX       0.051700
     74 H23        -19.5780    57.0650     5.2100 hn         1 YKX       0.360500
     75 H26        -11.4310    53.5070     2.6730 h1         1 YKX       0.061200
     76 H27        -11.2880    53.2790     0.9320 h1         1 YKX       0.061200
     77 H28         -7.1250    55.2080     2.8380 hc         1 YKX       0.044700
     78 H29         -8.1460    56.5940     2.4880 hc         1 YKX       0.044700
     79 H30         -7.0530    54.5070     0.5340 hc         1 YKX       0.053200
     80 H31         -6.7670    56.2390     0.5260 hc         1 YKX       0.053200
     81 H32         -7.3610    56.0530    -1.9080 ha         1 YKX       0.127000
     82 H33        -10.1900    58.7820     6.5740 h1         1 YKX       0.057700
     83 H34        -12.6240    58.1020     7.1900 h1         1 YKX       0.051700
     84 H35        -10.7180    58.7410    10.1840 h1         1 YKX       0.031700
     85 H36        -11.4650    57.4790     9.1830 h1         1 YKX       0.031700
     86 H37         -9.9940    58.3160     8.6250 h1         1 YKX       0.031700
     87 H38        -14.5070    58.6820     5.6480 ha         1 YKX       0.198000
     88 H39        -15.5980    61.0190     4.8540 hc         1 YKX       0.059200
     89 H40        -15.8960    61.2660     6.5670 hc         1 YKX       0.059200
     90 H41        -16.8300    58.8810     4.9090 hc         1 YKX       0.060700
     91 H42        -19.1130    59.8500     5.0430 hc         1 YKX       0.040700
     92 H43        -18.4930    61.2240     5.9810 hc         1 YKX       0.040700
     93 H44        -17.9960    60.9930     4.2930 hc         1 YKX       0.040700
     94 H45        -16.3930    58.6840     7.5820 h1         1 YKX       0.121700
     95 H46        -17.9790    59.4670     7.6820 h1         1 YKX       0.121700
     96 H47        -13.3820    56.5880     5.6530 ha         1 YKX       0.125000
     97 C6         -23.7880    57.3310     2.7620 c3         1 YKX       0.066900
     98 O16        -15.4540    56.0600     7.2130 o          1 YKX      -0.652100
@<TRIPOS>BOND
     1     1    21 1   
     2     1    52 1   
     3     1    53 1   
     4     1    54 1   
     5     2     4 1   
     6     2    21 1   
     7     2    22 2   
     8     3     4 2   
     9     3    23 1   
    10     3    58 1   
    11     4    24 1   
    12     5     6 1   
    13     5    29 1   
    14     5    98 2   
    15     6     7 ar  
    16     6    51 ar  
    17     7     8 ar  
    18     7    59 1   
    19     8    30 ar  
    20     8    60 1   
    21     9    10 1   
    22     9    14 1   
    23     9    15 1   
    24     9    32 1   
    25    10    33 1   
    26    10    61 1   
    27    10    62 1   
    28    11    14 ar  
    29    11    34 1   
    30    11    35 ar  
    31    12    13 ar  
    32    12    36 ar  
    33    12    63 1   
    34    13    14 ar  
    35    13    64 1   
    36    15    38 1   
    37    15    65 1   
    38    15    66 1   
    39    16    17 1   
    40    16    38 1   
    41    16    67 1   
    42    16    68 1   
    43    17    18 1   
    44    17    39 1   
    45    17    69 1   
    46    18    19 1   
    47    18    70 1   
    48    18    71 1   
    49    19    20 1   
    50    19    72 1   
    51    19    73 1   
    52    20    39 1   
    53    22    23 1   
    54    23    97 1   
    55    24    25 2   
    56    24    26 1   
    57    26    27 1   
    58    26    74 1   
    59    27    28 2   
    60    27    29 2   
    61    27    49 1   
    62    30    31 1   
    63    30    50 ar  
    64    31    32 1   
    65    32    75 1   
    66    32    76 1   
    67    33    34 1   
    68    33    77 1   
    69    33    78 1   
    70    34    79 1   
    71    34    80 1   
    72    35    36 ar  
    73    35    81 1   
    74    36    37 1   
    75    38    50 1   
    76    39    40 1   
    77    39    82 1   
    78    40    41 1   
    79    40    43 1   
    80    40    83 1   
    81    41    42 1   
    82    42    84 1   
    83    42    85 1   
    84    42    86 1   
    85    43    44 1   
    86    43    45 2   
    87    45    46 1   
    88    45    87 1   
    89    46    47 1   
    90    46    88 1   
    91    46    89 1   
    92    47    48 1   
    93    47    49 1   
    94    47    90 1   
    95    48    91 1   
    96    48    92 1   
    97    48    93 1   
    98    49    94 1   
    99    49    95 1   
   100    50    51 ar  
   101    51    96 1   
   102    55    97 1   
   103    56    97 1   
   104    57    97 1   
@<TRIPOS>SUBSTRUCTURE
     1 YKX         1 TEMP              0 ****  ****    0 ROOT
