@<TRIPOS>MOLECULE
YKX
   98   104     1     0     0
SMALL
abcg2


@<TRIPOS>ATOM
      1 C1         -24.6670    59.4970     7.1850 c3         1 YKX       0.150900
      2 C3         -22.9940    58.4670     5.9160 cc         1 YKX       0.554300
      3 C7         -21.8340    57.5590     4.2790 cd         1 YKX      -0.092000
      4 C8         -21.7290    57.8920     5.6250 cc         1 YKX      -0.314600
      5 C15        -15.9510    56.0040     5.9400 c          1 YKX       0.751100
      6 C17        -15.1640    55.6490     4.7310 ca         1 YKX      -0.099600
      7 C18        -15.7300    54.9970     3.6450 ca         1 YKX      -0.072000
      8 C19        -14.9140    54.6630     2.5780 ca         1 YKX      -0.120000
      9 C23        -10.4870    55.1570     1.6530 c6         1 YKX      -0.033700
     10 C24         -9.3330    54.6340     2.5150 c6         1 YKX      -0.070400
     11 C27         -8.6760    55.5180    -0.1180 ca         1 YKX      -0.056300
     12 C31        -10.6240    56.0390    -2.0580 ca         1 YKX      -0.110000
     13 C32        -10.9790    55.7340    -0.7560 ca         1 YKX      -0.094000
     14 C33        -10.0290    55.4620     0.2330 ca         1 YKX      -0.073300
     15 C34        -11.0690    56.4550     2.2410 c3         1 YKX       0.223800
     16 C36        -11.1970    57.0990     4.6120 c3         1 YKX       0.229800
     17 C37        -11.7040    58.5450     4.6330 c5         1 YKX      -0.133700
     18 C39        -11.2900    59.4100     3.4410 c5         1 YKX      -0.111400
     19 C40        -11.3400    60.8000     4.0420 c5         1 YKX       0.150600
     20 O41        -10.8420    60.6430     5.3590 os         1 YKX      -0.430000
     21 O2         -23.3620    58.9390     7.0960 os         1 YKX      -0.413300
     22 N4         -23.7710    58.4790     4.8620 nd         1 YKX      -0.613800
     23 N5         -23.0430    57.9220     3.8780 na         1 YKX       0.155800
     24 C9         -20.6150    57.7280     6.5370 c          1 YKX       0.690700
     25 O10        -20.6250    58.0700     7.7010 o          1 YKX      -0.546100
     26 N11        -19.4790    57.1570     5.9830 ns         1 YKX      -0.549300
     27 S12        -18.1130    56.8360     6.8670 s6         1 YKX       0.990300
     28 O13        -18.4160    56.0550     8.0530 o          1 YKX      -0.465000
     29 N14        -17.2720    56.2200     5.6890 ne         1 YKX      -0.627900
     30 C20        -13.5770    55.0290     2.5420 ca         1 YKX       0.078100
     31 O21        -12.8780    54.6070     1.4560 os         1 YKX      -0.358100
     32 C22        -11.5820    54.0840     1.6950 c3         1 YKX       0.169600
     33 C25         -8.0420    55.4030     2.3080 c6         1 YKX      -0.071400
     34 C26         -7.5770    55.2380     0.8730 c6         1 YKX      -0.035100
     35 C28         -8.3140    55.8280    -1.4290 ca         1 YKX      -0.112000
     36 C29         -9.2790    56.0830    -2.3830 ca         1 YKX       0.126000
     37 CL30        -8.8010    56.4750    -4.0050 cl         1 YKX      -0.206000
     38 N35        -11.7070    56.2730     3.5320 nh         1 YKX      -0.819400
     39 C42        -11.1300    59.3370     5.8220 c5         1 YKX       0.147300
     40 C44        -12.0410    59.3640     7.0560 c3         1 YKX       0.180500
     41 O46        -11.4000    60.0010     8.1410 os         1 YKX      -0.427000
     42 C47        -10.5590    59.1590     8.8920 c3         1 YKX       0.142900
     43 C48        -13.3510    60.0630     6.8610 c2         1 YKX       0.123300
     44 F49        -13.2360    61.3920     6.6550 f          1 YKX      -0.165500
     45 C50        -14.5540    59.5120     6.9060 c2         1 YKX      -0.275200
     46 C51        -15.8480    60.2460     6.7170 c3         1 YKX      -0.025200
     47 C52        -16.9970    59.3510     6.2260 c3         1 YKX      -0.027700
     48 C54        -18.1400    60.2150     5.7050 c3         1 YKX      -0.095100
     49 C55        -17.4430    58.4320     7.3680 c3         1 YKX      -0.276400
     50 C56        -13.0060    55.7950     3.5880 ca         1 YKX       0.262000
     51 C57        -13.8260    56.0260     4.6980 ca         1 YKX      -0.129000
     52 H1         -24.7790    59.8390     8.2100 h1         1 YKX       0.050033
     53 H2         -24.7880    60.3430     6.5070 h1         1 YKX       0.050033
     54 H3         -25.4360    58.7550     6.9660 h1         1 YKX       0.050033
     55 H4         -24.5990    58.2110     2.5570 h1         1 YKX       0.065367
     56 H5         -22.9920    58.2910     1.8190 h1         1 YKX       0.065367
     57 H6         -23.6800    56.7220     2.2850 h1         1 YKX       0.065367
     58 H7         -21.1340    57.0980     3.5980 h4         1 YKX       0.159000
     59 H8         -16.7730    54.7120     3.6440 ha         1 YKX       0.133000
     60 H9         -15.3080    54.0910     1.7470 ha         1 YKX       0.126000
     61 H10         -9.6430    54.6560     3.5620 hc         1 YKX       0.050700
     62 H11         -9.1560    53.5790     2.2720 hc         1 YKX       0.050700
     63 H12        -11.3840    56.2430    -2.8000 ha         1 YKX       0.130000
     64 H13        -12.0330    55.7070    -0.5140 ha         1 YKX       0.133000
     65 H14        -10.2550    57.1660     2.3680 h1         1 YKX       0.053200
     66 H15        -11.7530    56.9250     1.5270 h1         1 YKX       0.053200
     67 H16        -11.4100    56.6170     5.5700 h1         1 YKX       0.055200
     68 H17        -10.1080    57.1070     4.5280 h1         1 YKX       0.055200
     69 H18        -12.7980    58.5480     4.6920 hc         1 YKX       0.073700
     70 H19        -11.9500    59.2960     2.5810 hc         1 YKX       0.056200
     71 H20        -10.2710    59.1810     3.1200 hc         1 YKX       0.056200
     72 H21        -10.7150    61.5230     3.5160 h1         1 YKX       0.051700
     73 H22        -12.3670    61.1860     4.0490 h1         1 YKX       0.051700
     74 H23        -19.4180    56.8780     5.0120 hn         1 YKX       0.360500
     75 H26        -11.5650    53.5760     2.6660 h1         1 YKX       0.061200
     76 H27        -11.4030    53.3240     0.9320 h1         1 YKX       0.061200
     77 H28         -7.2740    55.0400     2.9930 hc         1 YKX       0.044700
     78 H29         -8.1840    56.4630     2.5380 hc         1 YKX       0.044700
     79 H30         -7.2230    54.2120     0.7260 hc         1 YKX       0.053200
     80 H31         -6.7230    55.8850     0.6610 hc         1 YKX       0.053200
     81 H32         -7.2640    55.8730    -1.6940 ha         1 YKX       0.127000
     82 H33        -10.1820    58.8750     6.1350 h1         1 YKX       0.057700
     83 H34        -12.2770    58.3170     7.3010 h1         1 YKX       0.051700
     84 H35        -10.1470    59.7510     9.7070 h1         1 YKX       0.031700
     85 H36        -11.1090    58.3130     9.3200 h1         1 YKX       0.031700
     86 H37         -9.7240    58.7580     8.3080 h1         1 YKX       0.031700
     87 H38        -14.5810    58.4470     7.1040 ha         1 YKX       0.198000
     88 H39        -15.7170    61.0530     5.9940 hc         1 YKX       0.059200
     89 H40        -16.1490    60.7280     7.6540 hc         1 YKX       0.059200
     90 H41        -16.6130    58.7490     5.3970 hc         1 YKX       0.060700
     91 H42        -18.9560    59.6250     5.2920 hc         1 YKX       0.040700
     92 H43        -18.5450    60.8440     6.5000 hc         1 YKX       0.040700
     93 H44        -17.7830    60.8680     4.9090 hc         1 YKX       0.040700
     94 H45        -16.6200    58.1470     8.0250 h1         1 YKX       0.121700
     95 H46        -18.2090    58.8920     7.9950 h1         1 YKX       0.121700
     96 H47        -13.4330    56.5490     5.5570 ha         1 YKX       0.125000
     97 C6         -23.6060    57.7740     2.5530 c3         1 YKX       0.066900
     98 O16        -15.4140    56.1260     7.0360 o          1 YKX      -0.652100
@<TRIPOS>BOND
     1     1    21 1   
     2     1    52 1   
     3     1    53 1   
     4     1    54 1   
     5     2     4 1   
     6     2    21 1   
     7     2    22 2   
     8     3     4 2   
     9     3    23 1   
    10     3    58 1   
    11     4    24 1   
    12     5     6 1   
    13     5    29 1   
    14     5    98 2   
    15     6     7 ar  
    16     6    51 ar  
    17     7     8 ar  
    18     7    59 1   
    19     8    30 ar  
    20     8    60 1   
    21     9    10 1   
    22     9    14 1   
    23     9    15 1   
    24     9    32 1   
    25    10    33 1   
    26    10    61 1   
    27    10    62 1   
    28    11    14 ar  
    29    11    34 1   
    30    11    35 ar  
    31    12    13 ar  
    32    12    36 ar  
    33    12    63 1   
    34    13    14 ar  
    35    13    64 1   
    36    15    38 1   
    37    15    65 1   
    38    15    66 1   
    39    16    17 1   
    40    16    38 1   
    41    16    67 1   
    42    16    68 1   
    43    17    18 1   
    44    17    39 1   
    45    17    69 1   
    46    18    19 1   
    47    18    70 1   
    48    18    71 1   
    49    19    20 1   
    50    19    72 1   
    51    19    73 1   
    52    20    39 1   
    53    22    23 1   
    54    23    97 1   
    55    24    25 2   
    56    24    26 1   
    57    26    27 1   
    58    26    74 1   
    59    27    28 2   
    60    27    29 2   
    61    27    49 1   
    62    30    31 1   
    63    30    50 ar  
    64    31    32 1   
    65    32    75 1   
    66    32    76 1   
    67    33    34 1   
    68    33    77 1   
    69    33    78 1   
    70    34    79 1   
    71    34    80 1   
    72    35    36 ar  
    73    35    81 1   
    74    36    37 1   
    75    38    50 1   
    76    39    40 1   
    77    39    82 1   
    78    40    41 1   
    79    40    43 1   
    80    40    83 1   
    81    41    42 1   
    82    42    84 1   
    83    42    85 1   
    84    42    86 1   
    85    43    44 1   
    86    43    45 2   
    87    45    46 1   
    88    45    87 1   
    89    46    47 1   
    90    46    88 1   
    91    46    89 1   
    92    47    48 1   
    93    47    49 1   
    94    47    90 1   
    95    48    91 1   
    96    48    92 1   
    97    48    93 1   
    98    49    94 1   
    99    49    95 1   
   100    50    51 ar  
   101    51    96 1   
   102    55    97 1   
   103    56    97 1   
   104    57    97 1   
@<TRIPOS>SUBSTRUCTURE
     1 YKX         1 TEMP              0 ****  ****    0 ROOT
