@<TRIPOS>MOLECULE
YKZ
   55    59     1     0     0
SMALL
abcg2


@<TRIPOS>ATOM
      1 C10        -21.8520   -13.3950     8.0170 ca         1 YKZ       0.282900
      2 C15        -20.7390   -11.2960     7.8980 ca         1 YKZ      -0.130000
      3 C17        -23.1770    -9.4960     9.7890 c          1 YKZ       0.721200
      4 N20        -22.9140   -10.9330    11.7840 na         1 YKZ      -0.191700
      5 C21        -22.4450   -12.1380    12.2040 ca         1 YKZ      -0.056200
      6 C24        -26.6980   -12.9860    14.6070 cy         1 YKZ       0.137000
      7 C25        -27.5210   -13.0050    15.9070 cy         1 YKZ      -0.077900
      8 C26        -28.7460   -13.4500    15.0820 cy         1 YKZ      -0.079700
      9 O30        -26.6460   -11.6610    14.0540 os         1 YKZ      -0.405100
     10 C31        -25.3960   -11.1850    14.1260 c          1 YKZ       0.690100
     11 O32        -25.1240   -10.0420    13.8270 o          1 YKZ      -0.530000
     12 C01        -22.6180   -12.4350    16.0120 c3         1 YKZ      -0.094100
     13 C02        -23.1210   -12.0070    14.6400 c3         1 YKZ       0.189000
     14 C03        -22.4550   -12.7180    13.4810 ca         1 YKZ      -0.135300
     15 C04        -21.8660   -13.9640    13.5900 ca         1 YKZ      -0.110000
     16 C05        -21.2790   -14.6100    12.4890 ca         1 YKZ      -0.168000
     17 C06        -21.2720   -14.0270    11.2400 ca         1 YKZ      -0.061000
     18 C07        -21.8700   -12.7710    11.0810 ca         1 YKZ      -0.085800
     19 C08        -22.0270   -11.8800     9.9680 cc         1 YKZ      -0.150400
     20 C09        -21.5460   -12.1730     8.6160 ca         1 YKZ       0.046200
     21 C12        -20.6520   -12.9130     6.1390 ca         1 YKZ       0.274900
     22 C13        -20.2850   -11.6630     6.6390 ca         1 YKZ       0.076100
     23 C16        -22.6750   -10.7610    10.4490 cd         1 YKZ      -0.051300
     24 C23        -25.2420   -13.4290    14.6040 c5         1 YKZ       0.087000
     25 C27        -29.6220   -14.5430    15.6520 c3         1 YKZ       0.160800
     26 C29        -27.7860   -13.8250    13.9360 cy         1 YKZ      -0.077900
     27 N11        -21.4170   -13.7520     6.8170 nb         1 YKZ      -0.665000
     28 N22        -24.5660   -12.1540    14.5590 n          1 YKZ      -0.442800
     29 O14        -19.5010   -10.8840     5.8710 oh         1 YKZ      -0.547100
     30 O18        -23.6590    -8.6550    10.5730 o          1 YKZ      -0.695500
     31 O19        -23.0730    -9.4240     8.5540 o          1 YKZ      -0.695500
     32 H101       -22.4880   -14.1070     8.5330 h4         1 YKZ       0.014100
     33 H151       -20.4640   -10.3380     8.3230 ha         1 YKZ       0.135000
     34 H201       -23.4320   -10.2570    12.3280 hn         1 YKZ       0.390000
     35 H251       -27.5800   -12.0720    16.4680 hc         1 YKZ       0.064450
     36 H261       -29.3600   -12.5870    14.8060 hc         1 YKZ       0.068700
     37 H013       -23.1080   -11.8410    16.7830 hc         1 YKZ       0.037033
     38 H011       -22.8120   -13.4860    16.2240 hc         1 YKZ       0.037033
     39 H012       -21.5440   -12.2710    16.0880 hc         1 YKZ       0.037033
     40 H021       -22.9210   -10.9370    14.5460 h1         1 YKZ       0.084700
     41 H041       -21.8410   -14.4650    14.5490 ha         1 YKZ       0.088000
     42 H051       -20.8230   -15.5800    12.6330 ha         1 YKZ       0.093000
     43 H061       -20.8080   -14.5320    10.4020 ha         1 YKZ       0.110000
     44 H121       -20.3070   -13.2270     5.1590 h4         1 YKZ       0.010100
     45 H232       -25.0040   -14.0430    13.7280 h1         1 YKZ       0.061200
     46 H231       -24.9930   -14.0010    15.4980 h1         1 YKZ       0.061200
     47 H271       -28.9880   -15.3870    15.9390 h1         1 YKZ       0.024700
     48 H272       -30.0910   -14.1790    16.5770 h1         1 YKZ       0.024700
     49 H292       -28.0500   -13.5560    12.9130 hc         1 YKZ       0.064450
     50 H291       -27.5240   -14.8860    13.9620 hc         1 YKZ       0.064450
     51 H1         -31.1130   -15.7750    15.0270 hn         1 YKZ       0.390000
     52 H281       -31.2420   -14.2710    14.4600 hn         1 YKZ       0.390000
     53 H141       -19.3260   -10.0430     6.3080 ho         1 YKZ       0.464000
     54 N28        -30.5730   -15.0060    14.6530 n8         1 YKZ      -0.993200
     55 H252       -27.1740   -13.7960    16.5750 hc         1 YKZ       0.064450
@<TRIPOS>BOND
     1     1    20 ar  
     2     1    27 ar  
     3     1    32 1   
     4     2    20 ar  
     5     2    22 ar  
     6     2    33 1   
     7     3    23 1   
     8     3    30 1   
     9     3    31 1   
    10     4     5 1   
    11     4    23 1   
    12     4    34 1   
    13     5    14 ar  
    14     5    18 ar  
    15     6     7 1   
    16     6     9 1   
    17     6    24 1   
    18     6    26 1   
    19     7     8 1   
    20     7    35 1   
    21     7    55 1   
    22     8    25 1   
    23     8    26 1   
    24     8    36 1   
    25     9    10 1   
    26    10    11 2   
    27    10    28 1   
    28    12    13 1   
    29    12    37 1   
    30    12    38 1   
    31    12    39 1   
    32    13    14 1   
    33    13    28 1   
    34    13    40 1   
    35    14    15 ar  
    36    15    16 ar  
    37    15    41 1   
    38    16    17 ar  
    39    16    42 1   
    40    17    18 ar  
    41    17    43 1   
    42    18    19 1   
    43    19    20 1   
    44    19    23 2   
    45    21    22 ar  
    46    21    27 ar  
    47    21    44 1   
    48    22    29 1   
    49    24    28 1   
    50    24    45 1   
    51    24    46 1   
    52    25    47 1   
    53    25    48 1   
    54    25    54 1   
    55    26    49 1   
    56    26    50 1   
    57    29    53 1   
    58    51    54 1   
    59    52    54 1   
@<TRIPOS>SUBSTRUCTURE
     1 YKZ         1 TEMP              0 ****  ****    0 ROOT
