@<TRIPOS>MOLECULE
YKZ
   55    59     1     0     0
SMALL
No Charge or Current Charge


@<TRIPOS>ATOM
      1 C10        -21.8520   -13.2070     7.7840 ca         1 YKZ       0.282900
      2 C15        -20.4890   -11.2120     8.0040 ca         1 YKZ      -0.130000
      3 C17        -23.3760    -9.7410     9.4170 c          1 YKZ       0.721200
      4 N20        -23.0880   -11.0010    11.6650 na         1 YKZ      -0.191700
      5 C21        -22.4310   -12.1540    12.0830 ca         1 YKZ      -0.056200
      6 C24        -26.7090   -13.2690    14.6620 cy         1 YKZ       0.137000
      7 C25        -27.4930   -13.1870    16.0200 cy         1 YKZ      -0.077900
      8 C26        -28.7890   -13.4940    15.1960 cy         1 YKZ      -0.079700
      9 O30        -26.7380   -12.0300    13.9370 os         1 YKZ      -0.405100
     10 C31        -25.5240   -11.4350    13.9830 c          1 YKZ       0.690100
     11 O32        -25.2590   -10.3290    13.5360 o          1 YKZ      -0.530000
     12 C01        -22.5910   -12.3680    15.9280 c3         1 YKZ      -0.094100
     13 C02        -23.1740   -12.0630    14.5300 c3         1 YKZ       0.189000
     14 C03        -22.4170   -12.7290    13.3710 ca         1 YKZ      -0.135300
     15 C04        -21.6900   -13.9390    13.5270 ca         1 YKZ      -0.110000
     16 C05        -20.9980   -14.5180    12.4380 ca         1 YKZ      -0.168000
     17 C06        -21.0210   -13.9040    11.1720 ca         1 YKZ      -0.061000
     18 C07        -21.7560   -12.7210    11.0380 ca         1 YKZ      -0.085800
     19 C08        -21.9670   -11.8860     9.8980 cc         1 YKZ      -0.150400
     20 C09        -21.4460   -12.0900     8.5480 ca         1 YKZ       0.046200
     21 C12        -20.4710   -12.6130     6.0210 ca         1 YKZ       0.274900
     22 C13        -19.9940   -11.4730     6.7140 ca         1 YKZ       0.076100
     23 C16        -22.8110   -10.8360    10.2810 cd         1 YKZ      -0.051300
     24 C23        -25.2080   -13.6950    14.6730 c5         1 YKZ       0.087000
     25 C27        -29.9320   -14.2540    15.8880 c3         1 YKZ       0.160800
     26 C29        -27.8320   -14.2780    14.2350 cy         1 YKZ      -0.077900
     27 N11        -21.3820   -13.4750     6.5390 nb         1 YKZ      -0.665000
     28 N22        -24.6180   -12.3630    14.4680 n          1 YKZ      -0.442800
     29 O14        -19.0640   -10.6380     6.1480 oh         1 YKZ      -0.547100
     30 O18        -24.0920    -8.9110     9.9610 o          1 YKZ      -0.695500
     31 O19        -23.1360    -9.7100     8.2180 o          1 YKZ      -0.695500
     32 H101       -22.5770   -13.9140     8.1840 h4         1 YKZ       0.014100
     33 H151       -20.1470   -10.3540     8.5770 ha         1 YKZ       0.135000
     34 H201       -23.7270   -10.4290    12.2130 hn         1 YKZ       0.390000
     35 H251       -27.4670   -12.2170    16.5280 hc         1 YKZ       0.064450
     36 H261       -29.2210   -12.5970    14.7350 hc         1 YKZ       0.068700
     37 H013       -23.0950   -11.7580    16.6870 hc         1 YKZ       0.037033
     38 H011       -22.7210   -13.4200    16.2040 hc         1 YKZ       0.037033
     39 H012       -21.5210   -12.1290    15.9580 hc         1 YKZ       0.037033
     40 H021       -23.0430   -10.9800    14.4050 h1         1 YKZ       0.084700
     41 H041       -21.6540   -14.4460    14.4880 ha         1 YKZ       0.088000
     42 H051       -20.4450   -15.4430    12.5800 ha         1 YKZ       0.093000
     43 H061       -20.4900   -14.3370    10.3270 ha         1 YKZ       0.110000
     44 H121       -20.1070   -12.8450     5.0200 h4         1 YKZ       0.010100
     45 H232       -24.9440   -14.3730    13.8510 h1         1 YKZ       0.061200
     46 H231       -24.8900   -14.1520    15.6190 h1         1 YKZ       0.061200
     47 H271       -29.5090   -15.1360    16.3880 h1         1 YKZ       0.024700
     48 H272       -30.3610   -13.5980    16.6580 h1         1 YKZ       0.024700
     49 H292       -28.1040   -14.2670    13.1740 hc         1 YKZ       0.064450
     50 H291       -27.6400   -15.3170    14.5300 hc         1 YKZ       0.064450
     51 H1         -31.7570   -15.1350    15.5680 hn         1 YKZ       0.390000
     52 H281       -31.4770   -13.8780    14.5930 hn         1 YKZ       0.390000
     53 H141       -18.8730    -9.9040     6.7710 ho         1 YKZ       0.464000
     54 N28        -31.0190   -14.7010    15.0000 n8         1 YKZ      -0.993200
     55 H252       -27.2200   -13.9620    16.7460 hc         1 YKZ       0.064450
@<TRIPOS>BOND
     1     1    20 ar  
     2     1    27 ar  
     3     1    32 1   
     4     2    20 ar  
     5     2    22 ar  
     6     2    33 1   
     7     3    23 1   
     8     3    30 1   
     9     3    31 1   
    10     4     5 1   
    11     4    23 1   
    12     4    34 1   
    13     5    14 ar  
    14     5    18 ar  
    15     6     7 1   
    16     6     9 1   
    17     6    24 1   
    18     6    26 1   
    19     7     8 1   
    20     7    35 1   
    21     7    55 1   
    22     8    25 1   
    23     8    26 1   
    24     8    36 1   
    25     9    10 1   
    26    10    11 2   
    27    10    28 1   
    28    12    13 1   
    29    12    37 1   
    30    12    38 1   
    31    12    39 1   
    32    13    14 1   
    33    13    28 1   
    34    13    40 1   
    35    14    15 ar  
    36    15    16 ar  
    37    15    41 1   
    38    16    17 ar  
    39    16    42 1   
    40    17    18 ar  
    41    17    43 1   
    42    18    19 1   
    43    19    20 1   
    44    19    23 2   
    45    21    22 ar  
    46    21    27 ar  
    47    21    44 1   
    48    22    29 1   
    49    24    28 1   
    50    24    45 1   
    51    24    46 1   
    52    25    47 1   
    53    25    48 1   
    54    25    54 1   
    55    26    49 1   
    56    26    50 1   
    57    29    53 1   
    58    51    54 1   
    59    52    54 1   
@<TRIPOS>SUBSTRUCTURE
     1 YKZ         1 TEMP              0 ****  ****    0 ROOT
