@<TRIPOS>MOLECULE
YL3
   34    36     1     0     0
SMALL
bcc


@<TRIPOS>ATOM
      1 OAT         -4.2170     2.2960     1.0620 o          1 YL3      -0.914833
      2 PAS         -4.0980     2.1890    -0.4600 p5         1 YL3       1.117700
      3 OAU         -5.3960     2.4650    -1.2180 o          1 YL3      -0.914833
      4 OAV         -2.8570     2.8950    -1.0330 o          1 YL3      -0.914833
      5 CAR         -3.7160     0.3840    -0.8140 c3         1 YL3       0.038600
      6 NAJ         -2.3040     0.1700    -0.5740 nu         1 YL3      -0.693900
      7 C4          -1.6990    -0.9960    -0.4000 ca         1 YL3       0.722200
      8 N3          -2.4200    -2.1240    -0.3740 nb         1 YL3      -0.804000
      9 C2          -1.7880    -3.2760    -0.1880 ca         1 YL3       0.697900
     10 N1          -0.4940    -3.4820    -0.0240 nb         1 YL3      -0.815000
     11 C6           0.2230    -2.3570    -0.0540 ca         1 YL3       0.543600
     12 SAE          1.9440    -2.3210     0.1280 ss         1 YL3      -0.239900
     13 C5          -0.2850    -1.0780    -0.2300 ca         1 YL3      -0.414400
     14 CAC          0.7250    -0.0750    -0.2220 cc         1 YL3      -0.006200
     15 CAD          1.9750    -0.5830    -0.0440 cd         1 YL3      -0.104600
     16 CAK          3.2420     0.1420     0.0120 ca         1 YL3       0.034200
     17 CAL          4.4540    -0.4740    -0.3030 ca         1 YL3      -0.132500
     18 CAM          5.6440     0.2350    -0.2580 ca         1 YL3      -0.127000
     19 CAN          5.6710     1.5820     0.0960 ca         1 YL3      -0.116300
     20 CAQ          6.9560     2.3550     0.1080 c3         1 YL3      -0.032800
     21 CAO          4.4590     2.1930     0.4160 ca         1 YL3      -0.127000
     22 CAP          3.2680     1.4900     0.3800 ca         1 YL3      -0.132500
     23 H3          -4.3040    -0.2860    -0.1860 h1         1 YL3       0.039200
     24 H4          -3.9570     0.1360    -1.8550 h1         1 YL3       0.039200
     25 H5          -1.7490     1.0100    -0.6670 hn         1 YL3       0.481800
     26 H6          -2.4180    -4.1600    -0.1720 h5         1 YL3       0.013100
     27 H7           0.5420     0.9820    -0.3630 ha         1 YL3       0.169000
     28 H8           4.4790    -1.5150    -0.6040 ha         1 YL3       0.140500
     29 H9           6.5690    -0.2710    -0.5090 ha         1 YL3       0.114000
     30 H10          7.1230     2.8460    -0.8530 hc         1 YL3       0.027700
     31 H11          6.9500     3.1320     0.8710 hc         1 YL3       0.027700
     32 H12          7.8120     1.7050     0.2910 hc         1 YL3       0.027700
     33 H13          4.4470     3.2360     0.7090 ha         1 YL3       0.114000
     34 H14          2.3490     1.9920     0.6580 ha         1 YL3       0.140500
@<TRIPOS>BOND
     1     1     2 1   
     2     2     3 1   
     3     2     4 1   
     4     2     5 1   
     5     5     6 1   
     6     5    23 1   
     7     5    24 1   
     8     6     7 1   
     9     6    25 1   
    10     7     8 ar  
    11     7    13 ar  
    12     8     9 ar  
    13     9    10 ar  
    14     9    26 1   
    15    10    11 ar  
    16    11    12 1   
    17    11    13 ar  
    18    12    15 1   
    19    13    14 1   
    20    14    15 2   
    21    14    27 1   
    22    15    16 1   
    23    16    17 ar  
    24    16    22 ar  
    25    17    18 ar  
    26    17    28 1   
    27    18    19 ar  
    28    18    29 1   
    29    19    20 1   
    30    19    21 ar  
    31    20    30 1   
    32    20    31 1   
    33    20    32 1   
    34    21    22 ar  
    35    21    33 1   
    36    22    34 1   
@<TRIPOS>SUBSTRUCTURE
     1 YL3         1 TEMP              0 ****  ****    0 ROOT
