@<TRIPOS>MOLECULE
YL3
   34    36     1     0     0
SMALL
No Charge or Current Charge


@<TRIPOS>ATOM
      1 OAT         -5.2720     2.4540     0.7670 o          1 YL3      -0.914833
      2 PAS         -4.3880     2.2540    -0.4200 p5         1 YL3       1.275500
      3 OAU         -5.1480     2.5230    -1.6760 o          1 YL3      -0.914833
      4 OAV         -3.2050     3.1630    -0.3340 o          1 YL3      -0.914833
      5 CAR         -3.7550     0.4700    -0.4380 c3         1 YL3      -0.119200
      6 NAJ         -2.2800     0.1880    -0.3700 nu         1 YL3      -0.749100
      7 C4          -1.6470    -1.0520    -0.3730 ca         1 YL3       0.393900
      8 N3          -2.4260    -2.1510    -0.4440 nb         1 YL3      -0.278000
      9 C2          -1.7950    -3.3470    -0.4450 ca         1 YL3       0.171900
     10 N1          -0.4610    -3.5550    -0.3840 nb         1 YL3      -0.289000
     11 C6           0.2880    -2.4420    -0.3140 ca         1 YL3       0.215300
     12 SAE          2.0550    -2.4530    -0.2250 ss         1 YL3      -0.239900
     13 C5          -0.2490    -1.1730    -0.3060 ca         1 YL3      -0.283800
     14 CAC          0.7580    -0.1290    -0.2250 cc         1 YL3      -0.056200
     15 CAD          2.0450    -0.6570    -0.1750 cd         1 YL3      -0.104600
     16 CAK          3.3110     0.1150    -0.0880 ca         1 YL3       0.034200
     17 CAL          4.5600    -0.5470    -0.0440 ca         1 YL3      -0.114500
     18 CAM          5.7620     0.1790     0.0370 ca         1 YL3      -0.109000
     19 CAN          5.7440     1.5830     0.0790 ca         1 YL3      -0.116300
     20 CAQ          7.0440     2.3680     0.1630 c3         1 YL3      -0.032800
     21 CAO          4.5100     2.2530     0.0330 ca         1 YL3      -0.109000
     22 CAP          3.3080     1.5280    -0.0490 ca         1 YL3      -0.114500
     23 H3          -4.2530    -0.0220     0.4070 h1         1 YL3       0.039200
     24 H4          -4.1630     0.0280    -1.3550 h1         1 YL3       0.039200
     25 H5          -1.6640     1.0030    -0.3160 hn         1 YL3       0.537000
     26 H6          -2.4250    -4.2330    -0.5020 h5         1 YL3       0.013100
     27 H7           0.5420     0.9350    -0.2060 ha         1 YL3       0.219000
     28 H8           4.6170    -1.6300    -0.0730 ha         1 YL3       0.122500
     29 H9           6.7090    -0.3550     0.0680 ha         1 YL3       0.096000
     30 H10          7.4250     2.6000    -0.8380 hc         1 YL3       0.027700
     31 H11          6.9050     3.3150     0.6980 hc         1 YL3       0.027700
     32 H12          7.8190     1.8020     0.6940 hc         1 YL3       0.027700
     33 H13          4.4790     3.3400     0.0600 ha         1 YL3       0.096000
     34 H14          2.3780     2.0860    -0.0810 ha         1 YL3       0.122500
@<TRIPOS>BOND
     1     1     2 1   
     2     2     3 1   
     3     2     4 1   
     4     2     5 1   
     5     5     6 1   
     6     5    23 1   
     7     5    24 1   
     8     6     7 1   
     9     6    25 1   
    10     7     8 ar  
    11     7    13 ar  
    12     8     9 ar  
    13     9    10 ar  
    14     9    26 1   
    15    10    11 ar  
    16    11    12 1   
    17    11    13 ar  
    18    12    15 1   
    19    13    14 1   
    20    14    15 2   
    21    14    27 1   
    22    15    16 1   
    23    16    17 ar  
    24    16    22 ar  
    25    17    18 ar  
    26    17    28 1   
    27    18    19 ar  
    28    18    29 1   
    29    19    20 1   
    30    19    21 ar  
    31    20    30 1   
    32    20    31 1   
    33    20    32 1   
    34    21    22 ar  
    35    21    33 1   
    36    22    34 1   
@<TRIPOS>SUBSTRUCTURE
     1 YL3         1 TEMP              0 ****  ****    0 ROOT
