@<TRIPOS>MOLECULE
YL4
   49    53     1     0     0
SMALL
No Charge or Current Charge


@<TRIPOS>ATOM
      1 CAT          4.0790     0.1760     0.3920 ca         1 YL4      -0.028000
      2 CAU          4.8130    -0.6750     1.2330 ca         1 YL4      -0.175300
      3 CAY          5.8980    -0.3110     2.1950 c5         1 YL4      -0.042100
      4 CAZ          6.3880    -1.7650     2.5490 c5         1 YL4       0.153600
      5 OBA          5.3420    -2.7170     2.1500 os         1 YL4      -0.364100
      6 CAV          4.5590    -2.0250     1.2700 ca         1 YL4       0.060100
      7 CAW          3.5550    -2.6020     0.4840 ca         1 YL4      -0.141000
      8 CAX          2.8070    -1.7670    -0.3720 ca         1 YL4      -0.082000
      9 CAS          3.0660    -0.3750    -0.4260 ca         1 YL4       0.002700
     10 CAR          2.2380     0.5330    -1.3360 c3         1 YL4      -0.038200
     11 PBB          2.6680     0.2930    -3.1740 p5         1 YL4       1.252500
     12 OBD          2.2970     1.5310    -3.9240 o          1 YL4      -0.897833
     13 OBE          4.1290     0.0320    -3.3350 o          1 YL4      -0.897833
     14 OBC          1.8780    -0.8590    -3.7050 o          1 YL4      -0.897833
     15 NAQ          0.7930     0.4960    -0.9100 nu         1 YL4      -0.773100
     16 C4           0.2470     0.9260     0.2970 ca         1 YL4       0.415900
     17 N3           1.0440     1.6230     1.1340 nb         1 YL4      -0.272000
     18 C2           0.4950     2.0320     2.3000 ca         1 YL4       0.174900
     19 N1          -0.7730     1.8160     2.7130 nb         1 YL4      -0.276000
     20 C6          -1.5430     1.1210     1.8580 ca         1 YL4       0.211300
     21 SAI         -3.2340     0.7100     2.1750 ss         1 YL4      -0.231900
     22 C5          -1.0870     0.6550     0.6440 ca         1 YL4      -0.279800
     23 CAL         -2.0970    -0.0740    -0.1000 cc         1 YL4      -0.061200
     24 CAH         -3.3050    -0.1330     0.5890 cd         1 YL4      -0.093600
     25 CAE         -4.5500    -0.8000     0.1310 ca         1 YL4       0.028200
     26 CAD         -4.6090    -1.4680    -1.1140 ca         1 YL4      -0.111000
     27 CAC         -5.7920    -2.0970    -1.5420 ca         1 YL4      -0.109500
     28 CAB         -6.9430    -2.0730    -0.7370 ca         1 YL4      -0.111300
     29 CAA         -8.2200    -2.7580    -1.1990 c3         1 YL4      -0.033800
     30 CAG         -6.8970    -1.4160     0.5030 ca         1 YL4      -0.109500
     31 CAF         -5.7160    -0.7860     0.9320 ca         1 YL4      -0.111000
     32 H1           4.2830     1.2440     0.3790 ha         1 YL4       0.119000
     33 H2           6.6910     0.2980     1.7470 hc         1 YL4       0.041700
     34 H3           5.5120     0.2170     3.0740 hc         1 YL4       0.041700
     35 H4           7.2960    -2.0080     1.9820 h1         1 YL4       0.027200
     36 H5           6.6120    -1.8860     3.6170 h1         1 YL4       0.027200
     37 H6           3.3580    -3.6690     0.5320 ha         1 YL4       0.095000
     38 H7           2.0230    -2.1970    -0.9890 ha         1 YL4       0.114000
     39 H8           2.6000     1.5600    -1.2000 h1         1 YL4       0.073700
     40 H11          0.1380     0.0550    -1.5560 hn         1 YL4       0.538000
     41 H12          1.1400     2.5920     2.9740 h5         1 YL4       0.017100
     42 H13         -1.9380    -0.5280    -1.0740 ha         1 YL4       0.220000
     43 H14         -3.7440    -1.5100    -1.7670 ha         1 YL4       0.122000
     44 H15         -5.8100    -2.6060    -2.5030 ha         1 YL4       0.097000
     45 H16         -8.2450    -3.8030    -0.8670 hc         1 YL4       0.028700
     46 H17         -9.1100    -2.2570    -0.7990 hc         1 YL4       0.028700
     47 H18         -8.3040    -2.7520    -2.2930 hc         1 YL4       0.028700
     48 H19         -7.7780    -1.3910     1.1400 ha         1 YL4       0.097000
     49 H20         -5.7210    -0.2880     1.8960 ha         1 YL4       0.122000
@<TRIPOS>BOND
     1     1     2 ar  
     2     1     9 ar  
     3     1    32 1   
     4     2     3 1   
     5     2     6 ar  
     6     3     4 1   
     7     3    33 1   
     8     3    34 1   
     9     4     5 1   
    10     4    35 1   
    11     4    36 1   
    12     5     6 1   
    13     6     7 ar  
    14     7     8 ar  
    15     7    37 1   
    16     8     9 ar  
    17     8    38 1   
    18     9    10 1   
    19    10    11 1   
    20    10    15 1   
    21    10    39 1   
    22    11    12 1   
    23    11    13 1   
    24    11    14 1   
    25    15    16 1   
    26    15    40 1   
    27    16    17 ar  
    28    16    22 ar  
    29    17    18 ar  
    30    18    19 ar  
    31    18    41 1   
    32    19    20 ar  
    33    20    21 1   
    34    20    22 ar  
    35    21    24 1   
    36    22    23 1   
    37    23    24 2   
    38    23    42 1   
    39    24    25 1   
    40    25    26 ar  
    41    25    31 ar  
    42    26    27 ar  
    43    26    43 1   
    44    27    28 ar  
    45    27    44 1   
    46    28    29 1   
    47    28    30 ar  
    48    29    45 1   
    49    29    46 1   
    50    29    47 1   
    51    30    31 ar  
    52    30    48 1   
    53    31    49 1   
@<TRIPOS>SUBSTRUCTURE
     1 YL4         1 TEMP              0 ****  ****    0 ROOT
