@<TRIPOS>MOLECULE
YL4
   49    53     1     0     0
SMALL
abcg2


@<TRIPOS>ATOM
      1 CAT          4.3360     0.1700     0.2750 ca         1 YL4      -0.028000
      2 CAU          5.1830    -0.6980     0.9320 ca         1 YL4      -0.175300
      3 CAY          6.5910    -0.5420     1.4320 c5         1 YL4      -0.042100
      4 CAZ          6.9330    -1.9910     1.8100 c5         1 YL4       0.153600
      5 OBA          5.6830    -2.6920     1.9390 os         1 YL4      -0.364100
      6 CAV          4.7410    -1.9640     1.2900 ca         1 YL4       0.060100
      7 CAW          3.4580    -2.3870     1.0050 ca         1 YL4      -0.141000
      8 CAX          2.6150    -1.4980     0.3370 ca         1 YL4      -0.082000
      9 CAS          3.0270    -0.2190    -0.0290 ca         1 YL4       0.002700
     10 CAR          2.1430     0.7130    -0.8010 c3         1 YL4      -0.038200
     11 PBB          2.3370     0.4720    -2.6740 p5         1 YL4       1.252500
     12 OBD          1.7050     1.7230    -3.2870 o          1 YL4      -0.897833
     13 OBE          3.8370     0.3380    -2.9100 o          1 YL4      -0.897833
     14 OBC          1.5210    -0.8100    -2.9070 o          1 YL4      -0.897833
     15 NAQ          0.7400     0.5110    -0.5200 nu         1 YL4      -0.773100
     16 C4           0.1020     0.9110     0.5750 ca         1 YL4       0.415900
     17 N3           0.7540     1.6250     1.4980 nb         1 YL4      -0.272000
     18 C2           0.0880     2.0330     2.5700 ca         1 YL4       0.174900
     19 N1          -1.1810     1.8240     2.8730 nb         1 YL4      -0.276000
     20 C6          -1.8270     1.1070     1.9530 ca         1 YL4       0.211300
     21 SAI         -3.4980     0.6730     2.0830 ss         1 YL4      -0.231900
     22 C5          -1.2740     0.6080     0.7820 ca         1 YL4      -0.279800
     23 CAL         -2.2100    -0.1180    -0.0090 cc         1 YL4      -0.061200
     24 CAH         -3.4480    -0.1690     0.5520 cd         1 YL4      -0.093600
     25 CAE         -4.6450    -0.8260     0.0350 ca         1 YL4       0.028200
     26 CAD         -4.5310    -1.9250    -0.8240 ca         1 YL4      -0.111000
     27 CAC         -5.6570    -2.5460    -1.3320 ca         1 YL4      -0.109500
     28 CAB         -6.9390    -2.1070    -1.0010 ca         1 YL4      -0.111300
     29 CAA         -8.1510    -2.7900    -1.5620 c3         1 YL4      -0.033800
     30 CAG         -7.0500    -1.0190    -0.1410 ca         1 YL4      -0.109500
     31 CAF         -5.9260    -0.3850     0.3680 ca         1 YL4      -0.111000
     32 H1           4.6770     1.1620     0.0020 ha         1 YL4       0.119000
     33 H2           7.2780    -0.1490     0.6820 hc         1 YL4       0.041700
     34 H3           6.6310     0.1270     2.2950 hc         1 YL4       0.041700
     35 H4           7.5210    -2.4710     1.0230 h1         1 YL4       0.027200
     36 H5           7.4760    -2.0800     2.7490 h1         1 YL4       0.027200
     37 H6           3.1140    -3.3760     1.2830 ha         1 YL4       0.095000
     38 H7           1.6080    -1.8200     0.1070 ha         1 YL4       0.114000
     39 H8           2.4140     1.7410    -0.5510 h1         1 YL4       0.073700
     40 H11          0.2620    -0.0790    -1.1880 hn         1 YL4       0.538000
     41 H12          0.6610     2.6100     3.2890 h5         1 YL4       0.017100
     42 H13         -1.9840    -0.5670    -0.9660 ha         1 YL4       0.220000
     43 H14         -3.5520    -2.3090    -1.0810 ha         1 YL4       0.122000
     44 H15         -5.5370    -3.3970    -1.9920 ha         1 YL4       0.097000
     45 H16         -8.1390    -3.8590    -1.3450 hc         1 YL4       0.028700
     46 H17         -9.0710    -2.3750    -1.1530 hc         1 YL4       0.028700
     47 H18         -8.1930    -2.6860    -2.6470 hc         1 YL4       0.028700
     48 H19         -8.0310    -0.6500     0.1330 ha         1 YL4       0.097000
     49 H20         -6.0580     0.4730     1.0160 ha         1 YL4       0.122000
@<TRIPOS>BOND
     1     1     2 ar  
     2     1     9 ar  
     3     1    32 1   
     4     2     3 1   
     5     2     6 ar  
     6     3     4 1   
     7     3    33 1   
     8     3    34 1   
     9     4     5 1   
    10     4    35 1   
    11     4    36 1   
    12     5     6 1   
    13     6     7 ar  
    14     7     8 ar  
    15     7    37 1   
    16     8     9 ar  
    17     8    38 1   
    18     9    10 1   
    19    10    11 1   
    20    10    15 1   
    21    10    39 1   
    22    11    12 1   
    23    11    13 1   
    24    11    14 1   
    25    15    16 1   
    26    15    40 1   
    27    16    17 ar  
    28    16    22 ar  
    29    17    18 ar  
    30    18    19 ar  
    31    18    41 1   
    32    19    20 ar  
    33    20    21 1   
    34    20    22 ar  
    35    21    24 1   
    36    22    23 1   
    37    23    24 2   
    38    23    42 1   
    39    24    25 1   
    40    25    26 ar  
    41    25    31 ar  
    42    26    27 ar  
    43    26    43 1   
    44    27    28 ar  
    45    27    44 1   
    46    28    29 1   
    47    28    30 ar  
    48    29    45 1   
    49    29    46 1   
    50    29    47 1   
    51    30    31 ar  
    52    30    48 1   
    53    31    49 1   
@<TRIPOS>SUBSTRUCTURE
     1 YL4         1 TEMP              0 ****  ****    0 ROOT
