@<TRIPOS>MOLECULE
YL5
   47    50     1     0     0
SMALL
No Charge or Current Charge


@<TRIPOS>ATOM
      1 CAY          1.4710     2.1840     0.5550 ca         1 YL5      -0.161000
      2 CAZ          1.1690     3.1970    -0.3680 ca         1 YL5       0.158000
      3 FBD         -0.0480     3.7820    -0.3460 f          1 YL5      -0.205000
      4 CBA          2.1220     3.6050    -1.3140 ca         1 YL5      -0.192000
      5 CBB          3.3860     2.9930    -1.3380 ca         1 YL5      -0.099000
      6 CBC          3.6890     1.9730    -0.4200 ca         1 YL5      -0.120000
      7 CAX          2.7330     1.5570     0.5290 ca         1 YL5      -0.003300
      8 CAV          3.0550     0.4230     1.4990 c3         1 YL5      -0.038100
      9 CAC          3.0110    -0.9940     0.8550 c3         1 YL5      -0.067500
     10 PAA          3.7500    -2.2790     2.0530 p5         1 YL5       1.263500
     11 OAD          5.1040    -1.8370     2.5020 o          1 YL5      -0.907167
     12 OAU          2.8420    -2.4160     3.2310 o          1 YL5      -0.907167
     13 OAE          3.8620    -3.5950     1.3560 o          1 YL5      -0.907167
     14 NAB          1.6420    -1.2450     0.2700 nu         1 YL5      -0.776100
     15 C4           1.1260    -0.7200    -0.9120 ca         1 YL5       0.419900
     16 N3           1.9840    -0.5100    -1.9320 nb         1 YL5      -0.269000
     17 C2           1.4710     0.0380    -3.0550 ca         1 YL5       0.178900
     18 N1           0.1850     0.3970    -3.2630 nb         1 YL5      -0.277000
     19 C6          -0.6450     0.1740    -2.2290 ca         1 YL5       0.217300
     20 SAN         -2.3660     0.5800    -2.2460 ss         1 YL5      -0.231900
     21 C5          -0.2300    -0.3830    -1.0400 ca         1 YL5      -0.283800
     22 CAL         -1.2930    -0.4890    -0.0580 cc         1 YL5      -0.059200
     23 CAM         -2.5010    -0.0070    -0.5530 cd         1 YL5      -0.097600
     24 CAO         -3.7910     0.0560     0.1810 ca         1 YL5       0.035200
     25 CAP         -3.8970    -0.3930     1.5180 ca         1 YL5      -0.114000
     26 CAQ         -5.1200    -0.3300     2.2070 ca         1 YL5      -0.108000
     27 CAR         -6.2670     0.1810     1.5770 ca         1 YL5      -0.115300
     28 CAW         -7.5900     0.2520     2.3250 c3         1 YL5      -0.032800
     29 CAS         -6.1750     0.6330     0.2510 ca         1 YL5      -0.108000
     30 CAT         -4.9520     0.5710    -0.4400 ca         1 YL5      -0.114000
     31 H1           0.7180     1.8720     1.2720 ha         1 YL5       0.131000
     32 H2           1.8790     4.3900    -2.0250 ha         1 YL5       0.102000
     33 H3           4.1280     3.3040    -2.0710 ha         1 YL5       0.087000
     34 H4           4.6660     1.4950    -0.4510 ha         1 YL5       0.117000
     35 H5           4.0540     0.5930     1.9170 hc         1 YL5       0.071200
     36 H6           2.3690     0.4470     2.3540 hc         1 YL5       0.071200
     37 H7           3.7510    -1.0210     0.0460 h1         1 YL5       0.067700
     38 H10          0.9480    -1.6550     0.8950 hn         1 YL5       0.528000
     39 H11          2.1640     0.2090    -3.8760 h5         1 YL5       0.016100
     40 H12         -1.1640    -0.8760     0.9480 ha         1 YL5       0.214000
     41 H13         -3.0360    -0.7950     2.0420 ha         1 YL5       0.120000
     42 H14         -5.1740    -0.6800     3.2350 ha         1 YL5       0.096000
     43 H15         -7.6910     1.2090     2.8490 hc         1 YL5       0.027700
     44 H16         -8.4420     0.1520     1.6420 hc         1 YL5       0.027700
     45 H17         -7.6720    -0.5490     3.0700 hc         1 YL5       0.027700
     46 H18         -7.0530     1.0350    -0.2510 ha         1 YL5       0.096000
     47 H19         -4.9230     0.9290    -1.4640 ha         1 YL5       0.120000
@<TRIPOS>BOND
     1     1     2 ar  
     2     1     7 ar  
     3     1    31 1   
     4     2     3 1   
     5     2     4 ar  
     6     4     5 ar  
     7     4    32 1   
     8     5     6 ar  
     9     5    33 1   
    10     6     7 ar  
    11     6    34 1   
    12     7     8 1   
    13     8     9 1   
    14     8    35 1   
    15     8    36 1   
    16     9    10 1   
    17     9    14 1   
    18     9    37 1   
    19    10    11 1   
    20    10    12 1   
    21    10    13 1   
    22    14    15 1   
    23    14    38 1   
    24    15    16 ar  
    25    15    21 ar  
    26    16    17 ar  
    27    17    18 ar  
    28    17    39 1   
    29    18    19 ar  
    30    19    20 1   
    31    19    21 ar  
    32    20    23 1   
    33    21    22 1   
    34    22    23 2   
    35    22    40 1   
    36    23    24 1   
    37    24    25 ar  
    38    24    30 ar  
    39    25    26 ar  
    40    25    41 1   
    41    26    27 ar  
    42    26    42 1   
    43    27    28 1   
    44    27    29 ar  
    45    28    43 1   
    46    28    44 1   
    47    28    45 1   
    48    29    30 ar  
    49    29    46 1   
    50    30    47 1   
@<TRIPOS>SUBSTRUCTURE
     1 YL5         1 TEMP              0 ****  ****    0 ROOT
