@<TRIPOS>MOLECULE
YL5
   47    50     1     0     0
SMALL
bcc


@<TRIPOS>ATOM
      1 CAY          2.0750     2.2950     0.5880 ca         1 YL5      -0.179000
      2 CAZ          1.8230     3.3350    -0.2840 ca         1 YL5       0.122900
      3 FBD          0.6610     4.0060    -0.1670 f          1 YL5      -0.169900
      4 CBA          2.7140     3.7170    -1.2660 ca         1 YL5      -0.210000
      5 CBB          3.9120     3.0180    -1.3590 ca         1 YL5      -0.117000
      6 CBC          4.1840     1.9660    -0.5000 ca         1 YL5      -0.138000
      7 CAX          3.2670     1.5830     0.4770 ca         1 YL5      -0.003300
      8 CAV          3.5120     0.3750     1.3310 c3         1 YL5      -0.038100
      9 CAC          2.9660    -0.9140     0.6940 c3         1 YL5       0.090300
     10 PAA          3.1380    -2.3880     1.8530 p5         1 YL5       1.105700
     11 OAD          4.5680    -2.3060     2.3910 o          1 YL5      -0.907167
     12 OAU          2.0460    -2.1000     2.8980 o          1 YL5      -0.907167
     13 OAE          2.8590    -3.6150     0.9850 o          1 YL5      -0.907167
     14 NAB          1.5560    -0.7740     0.3990 nu         1 YL5      -0.720900
     15 C4           1.0120    -0.3740    -0.7440 ca         1 YL5       0.748200
     16 N3           1.7820    -0.1750    -1.8190 nb         1 YL5      -0.795000
     17 C2           1.2140     0.2500    -2.9370 ca         1 YL5       0.704900
     18 N1          -0.0640     0.5050    -3.1620 nb         1 YL5      -0.803000
     19 C6          -0.8340     0.2810    -2.0970 ca         1 YL5       0.545600
     20 SAN         -2.5480     0.5210    -2.0960 ss         1 YL5      -0.231900
     21 C5          -0.3930    -0.1610    -0.8570 ca         1 YL5      -0.414400
     22 CAL         -1.4490    -0.3050     0.0870 cc         1 YL5      -0.009200
     23 CAM         -2.6680     0.0160    -0.4270 cd         1 YL5      -0.097600
     24 CAO         -3.9650    -0.0150     0.2430 ca         1 YL5       0.035200
     25 CAP         -4.0420     0.0560     1.6370 ca         1 YL5      -0.132000
     26 CAQ         -5.2650     0.0060     2.2830 ca         1 YL5      -0.126000
     27 CAR         -6.4590    -0.1030     1.5710 ca         1 YL5      -0.115300
     28 CAW         -7.7820    -0.1200     2.2760 c3         1 YL5      -0.032800
     29 CAS         -6.3800    -0.1680     0.1820 ca         1 YL5      -0.126000
     30 CAT         -5.1590    -0.1260    -0.4720 ca         1 YL5      -0.132000
     31 H1           1.3410     2.0360     1.3420 ha         1 YL5       0.149000
     32 H2           2.4890     4.5390    -1.9320 ha         1 YL5       0.120000
     33 H3           4.6360     3.3040    -2.1110 ha         1 YL5       0.105000
     34 H4           5.1190     1.4250    -0.5930 ha         1 YL5       0.135000
     35 H5           4.5810     0.2360     1.5000 hc         1 YL5       0.071200
     36 H6           3.0460     0.5030     2.3110 hc         1 YL5       0.071200
     37 H7           3.4930    -1.0980    -0.2430 h1         1 YL5       0.067700
     38 H10          0.9570    -0.9410     1.1960 hn         1 YL5       0.472800
     39 H11          1.8860     0.4070    -3.7750 h5         1 YL5       0.016100
     40 H12         -1.3190    -0.6530     1.1030 ha         1 YL5       0.164000
     41 H13         -3.1400     0.1650     2.2250 ha         1 YL5       0.138000
     42 H14         -5.2900     0.0600     3.3650 ha         1 YL5       0.114000
     43 H15         -8.1680     0.8940     2.4070 hc         1 YL5       0.027700
     44 H16         -8.5290    -0.6790     1.7140 hc         1 YL5       0.027700
     45 H17         -7.7010    -0.5650     3.2680 hc         1 YL5       0.027700
     46 H18         -7.2870    -0.2620    -0.4030 ha         1 YL5       0.114000
     47 H19         -5.1460    -0.2010    -1.5530 ha         1 YL5       0.138000
@<TRIPOS>BOND
     1     1     2 ar  
     2     1     7 ar  
     3     1    31 1   
     4     2     3 1   
     5     2     4 ar  
     6     4     5 ar  
     7     4    32 1   
     8     5     6 ar  
     9     5    33 1   
    10     6     7 ar  
    11     6    34 1   
    12     7     8 1   
    13     8     9 1   
    14     8    35 1   
    15     8    36 1   
    16     9    10 1   
    17     9    14 1   
    18     9    37 1   
    19    10    11 1   
    20    10    12 1   
    21    10    13 1   
    22    14    15 1   
    23    14    38 1   
    24    15    16 ar  
    25    15    21 ar  
    26    16    17 ar  
    27    17    18 ar  
    28    17    39 1   
    29    18    19 ar  
    30    19    20 1   
    31    19    21 ar  
    32    20    23 1   
    33    21    22 1   
    34    22    23 2   
    35    22    40 1   
    36    23    24 1   
    37    24    25 ar  
    38    24    30 ar  
    39    25    26 ar  
    40    25    41 1   
    41    26    27 ar  
    42    26    42 1   
    43    27    28 1   
    44    27    29 ar  
    45    28    43 1   
    46    28    44 1   
    47    28    45 1   
    48    29    30 ar  
    49    29    46 1   
    50    30    47 1   
@<TRIPOS>SUBSTRUCTURE
     1 YL5         1 TEMP              0 ****  ****    0 ROOT
