@<TRIPOS>MOLECULE
YL6
   47    50     1     0     0
SMALL
bcc


@<TRIPOS>ATOM
      1 CAP         -3.8310    -0.3930     0.9510 ca         1 YL6      -0.122000
      2 CAQ         -5.1290    -0.2620     1.4070 ca         1 YL6       0.039400
      3 CL          -5.4070    -0.3680     3.1170 cl         1 YL6      -0.136400
      4 CAR         -6.2120    -0.0590     0.5520 ca         1 YL6      -0.110300
      5 CAW         -7.6150     0.0820     1.0540 c3         1 YL6      -0.031800
      6 CAS         -5.9170     0.0070    -0.8060 ca         1 YL6      -0.121000
      7 CAT         -4.6250    -0.1170    -1.2870 ca         1 YL6      -0.146000
      8 CAO         -3.5540    -0.3180    -0.4160 ca         1 YL6       0.051200
      9 CAM         -2.1810    -0.4440    -0.8960 cc         1 YL6      -0.105600
     10 SAN         -1.8560    -0.5510    -2.6110 ss         1 YL6      -0.230900
     11 CAL         -1.0310    -0.4890    -0.1680 cd         1 YL6       0.000800
     12 C5           0.1340    -0.6130    -0.9750 ca         1 YL6      -0.418400
     13 C6          -0.1510    -0.6540    -2.3330 ca         1 YL6       0.550600
     14 N1           0.7450    -0.7500    -3.3140 nb         1 YL6      -0.803000
     15 C2           1.9900    -0.8110    -2.8700 ca         1 YL6       0.706900
     16 N3           2.4170    -0.7820    -1.6180 nb         1 YL6      -0.792000
     17 C4           1.5170    -0.6640    -0.6350 ca         1 YL6       0.748200
     18 NAB          1.9170    -0.6060     0.6280 nu         1 YL6      -0.717900
     19 CAC          3.2790    -0.4990     1.1110 c3         1 YL6       0.090300
     20 PAA          3.3620    -1.4710     2.7210 p5         1 YL6       1.103700
     21 OAD          2.1120    -0.9670     3.4620 o          1 YL6      -0.905833
     22 OAU          3.2890    -2.9410     2.3040 o          1 YL6      -0.905833
     23 OAE          4.6890    -1.0620     3.3640 o          1 YL6      -0.905833
     24 CAV          3.6530     0.9800     1.3170 c3         1 YL6      -0.039100
     25 CAX          3.4860     1.7840     0.0630 ca         1 YL6      -0.004300
     26 CAY          2.2630     2.3780    -0.2370 ca         1 YL6      -0.180000
     27 CAZ          2.0970     3.0130    -1.4520 ca         1 YL6       0.122900
     28 FBD          0.9040     3.5720    -1.7300 f          1 YL6      -0.168900
     29 CBA          3.1060     3.1020    -2.3890 ca         1 YL6      -0.210000
     30 CBB          4.3320     2.5270    -2.0760 ca         1 YL6      -0.117000
     31 CBC          4.5200     1.8770    -0.8670 ca         1 YL6      -0.138000
     32 H1          -3.0380    -0.5560     1.6670 ha         1 YL6       0.165000
     33 H2          -7.7130     0.9240     1.7410 hc         1 YL6       0.034700
     34 H3          -8.3040     0.2410     0.2270 hc         1 YL6       0.034700
     35 H4          -7.9380    -0.8100     1.5930 hc         1 YL6       0.034700
     36 H5          -6.7260     0.1600    -1.5100 ha         1 YL6       0.114000
     37 H6          -4.4670    -0.0490    -2.3560 ha         1 YL6       0.135000
     38 H7          -1.0140    -0.4300     0.9110 ha         1 YL6       0.164000
     39 H8           2.7610    -0.8980    -3.6280 h5         1 YL6       0.018100
     40 H9           1.2230    -0.5640     1.3620 hn         1 YL6       0.474800
     41 H10          3.9430    -0.9310     0.3620 h1         1 YL6       0.068700
     42 H13          3.0300     1.3860     2.1190 hc         1 YL6       0.071700
     43 H14          4.6860     1.0200     1.6630 hc         1 YL6       0.071700
     44 H15          1.4410     2.3370     0.4670 ha         1 YL6       0.149000
     45 H16          2.9440     3.6100    -3.3310 ha         1 YL6       0.120000
     46 H17          5.1440     2.5890    -2.7890 ha         1 YL6       0.106000
     47 H18          5.4780     1.4230    -0.6450 ha         1 YL6       0.136000
@<TRIPOS>BOND
     1     1     2 ar  
     2     1     8 ar  
     3     1    32 1   
     4     2     3 1   
     5     2     4 ar  
     6     4     5 1   
     7     4     6 ar  
     8     5    33 1   
     9     5    34 1   
    10     5    35 1   
    11     6     7 ar  
    12     6    36 1   
    13     7     8 ar  
    14     7    37 1   
    15     8     9 1   
    16     9    10 1   
    17     9    11 2   
    18    10    13 1   
    19    11    12 1   
    20    11    38 1   
    21    12    13 ar  
    22    12    17 ar  
    23    13    14 ar  
    24    14    15 ar  
    25    15    16 ar  
    26    15    39 1   
    27    16    17 ar  
    28    17    18 1   
    29    18    19 1   
    30    18    40 1   
    31    19    20 1   
    32    19    24 1   
    33    19    41 1   
    34    20    21 1   
    35    20    22 1   
    36    20    23 1   
    37    24    25 1   
    38    24    42 1   
    39    24    43 1   
    40    25    26 ar  
    41    25    31 ar  
    42    26    27 ar  
    43    26    44 1   
    44    27    28 1   
    45    27    29 ar  
    46    29    30 ar  
    47    29    45 1   
    48    30    31 ar  
    49    30    46 1   
    50    31    47 1   
@<TRIPOS>SUBSTRUCTURE
     1 YL6         1 TEMP              0 ****  ****    0 ROOT
