@<TRIPOS>MOLECULE
YL6
   47    50     1     0     0
SMALL
No Charge or Current Charge


@<TRIPOS>ATOM
      1 CAP         -3.7220    -0.8600     0.6860 ca         1 YL6      -0.104000
      2 CAQ         -4.9940    -0.6100     1.2280 ca         1 YL6       0.131000
      3 Cl          -5.4170    -1.3550     2.7700 cl         1 YL6      -0.228000
      4 CAR         -5.9110     0.2180     0.5460 ca         1 YL6      -0.110300
      5 CAW         -7.2960     0.5010     1.1180 c3         1 YL6      -0.031800
      6 CAS         -5.5340     0.7840    -0.6870 ca         1 YL6      -0.103000
      7 CAT         -4.2610     0.5300    -1.2260 ca         1 YL6      -0.128000
      8 CAO         -3.3400    -0.2880    -0.5440 ca         1 YL6       0.051200
      9 CAM         -2.0190    -0.5430    -1.1260 cc         1 YL6      -0.105600
     10 SAN         -1.6390    -0.5640    -2.8720 ss         1 YL6      -0.230900
     11 CAL         -0.8940    -0.7020    -0.3390 cd         1 YL6      -0.049200
     12 C5           0.3260    -0.8710    -1.1040 ca         1 YL6      -0.287800
     13 C6           0.0800    -0.8070    -2.4600 ca         1 YL6       0.222300
     14 N1           1.0580    -0.9000    -3.3770 nb         1 YL6      -0.277000
     15 C2           2.3050    -1.0600    -2.8770 ca         1 YL6       0.180900
     16 N3           2.6510    -1.1310    -1.5710 nb         1 YL6      -0.266000
     17 C4           1.6490    -1.0330    -0.6730 ca         1 YL6       0.419900
     18 NAB          1.9810    -1.0590     0.6780 nu         1 YL6      -0.773100
     19 CAC          3.2270    -0.4930     1.3160 c3         1 YL6      -0.067500
     20 PAA          3.8070    -1.2000     2.9880 p5         1 YL6       1.261500
     21 OAD          2.7230    -1.0040     3.9960 o          1 YL6      -0.905833
     22 OAU          4.0850    -2.6600     2.8350 o          1 YL6      -0.905833
     23 OAE          5.0490    -0.5010     3.4330 o          1 YL6      -0.905833
     24 CAV          3.1140     1.0580     1.4030 c3         1 YL6      -0.039100
     25 CAX          2.9030     1.7420     0.0550 ca         1 YL6      -0.004300
     26 CAY          1.6290     2.2220    -0.3120 ca         1 YL6      -0.162000
     27 CAZ          1.4330     2.8100    -1.5700 ca         1 YL6       0.158000
     28 FBD          0.2060     3.2540    -1.9200 f          1 YL6      -0.204000
     29 CBA          2.5030     2.9390    -2.4690 ca         1 YL6      -0.192000
     30 CBB          3.7780     2.4750    -2.1070 ca         1 YL6      -0.099000
     31 CBC          3.9760     1.8780    -0.8490 ca         1 YL6      -0.120000
     32 H1          -3.0430    -1.5150     1.2230 ha         1 YL6       0.147000
     33 H2          -7.2250     0.9860     2.0990 hc         1 YL6       0.034700
     34 H3          -7.8780     1.1640     0.4670 hc         1 YL6       0.034700
     35 H4          -7.8690    -0.4250     1.2400 hc         1 YL6       0.034700
     36 H5          -6.2250     1.4230    -1.2310 ha         1 YL6       0.096000
     37 H6          -3.9880     0.9800    -2.1770 ha         1 YL6       0.117000
     38 H7          -0.9210    -0.6540     0.7470 ha         1 YL6       0.214000
     39 H8           3.1140    -1.1360    -3.6010 h5         1 YL6       0.018100
     40 H9           1.2070    -1.2760     1.3060 hn         1 YL6       0.530000
     41 H10          4.0900    -0.7340     0.6830 h1         1 YL6       0.068700
     42 H13          2.3030     1.3180     2.0940 hc         1 YL6       0.071700
     43 H14          4.0280     1.4570     1.8590 hc         1 YL6       0.071700
     44 H15          0.7870     2.1190     0.3670 ha         1 YL6       0.131000
     45 H16          2.3430     3.3960    -3.4420 ha         1 YL6       0.102000
     46 H17          4.6110     2.5700    -2.8000 ha         1 YL6       0.088000
     47 H18          4.9620     1.5090    -0.5790 ha         1 YL6       0.118000
@<TRIPOS>BOND
     1     1     2 ar  
     2     1     8 ar  
     3     1    32 1   
     4     2     3 1   
     5     2     4 ar  
     6     4     5 1   
     7     4     6 ar  
     8     5    33 1   
     9     5    34 1   
    10     5    35 1   
    11     6     7 ar  
    12     6    36 1   
    13     7     8 ar  
    14     7    37 1   
    15     8     9 1   
    16     9    10 1   
    17     9    11 2   
    18    10    13 1   
    19    11    12 1   
    20    11    38 1   
    21    12    13 ar  
    22    12    17 ar  
    23    13    14 ar  
    24    14    15 ar  
    25    15    16 ar  
    26    15    39 1   
    27    16    17 ar  
    28    17    18 1   
    29    18    19 1   
    30    18    40 1   
    31    19    20 1   
    32    19    24 1   
    33    19    41 1   
    34    20    21 1   
    35    20    22 1   
    36    20    23 1   
    37    24    25 1   
    38    24    42 1   
    39    24    43 1   
    40    25    26 ar  
    41    25    31 ar  
    42    26    27 ar  
    43    26    44 1   
    44    27    28 1   
    45    27    29 ar  
    46    29    30 ar  
    47    29    45 1   
    48    30    31 ar  
    49    30    46 1   
    50    31    47 1   
@<TRIPOS>SUBSTRUCTURE
     1 YL6         1 TEMP              0 ****  ****    0 ROOT
