@<TRIPOS>MOLECULE
YL8
   23    24     1     0     0
SMALL
No Charge or Current Charge


@<TRIPOS>ATOM
      1 C02        -22.6770   -19.4610    -8.9730 c3         1 YL8       0.362300
      2 C05        -23.2500   -20.3920   -10.0480 ca         1 YL8      -0.211300
      3 C06        -24.6100   -20.3120   -10.4110 ca         1 YL8       0.000000
      4 C07        -25.1390   -21.1630   -11.4020 ca         1 YL8      -0.211300
      5 C08        -26.6170   -21.0680   -11.7980 c3         1 YL8       0.362300
      6 C12        -24.2880   -22.0830   -12.0490 ca         1 YL8      -0.003000
      7 C13        -22.9200   -22.1730   -11.7090 ca         1 YL8      -0.132500
      8 C14        -22.0440   -23.1380   -12.3970 cc         1 YL8       0.547500
      9 C19        -22.4130   -21.3180   -10.7040 ca         1 YL8      -0.003000
     10 F01        -21.6760   -20.0420    -8.2720 f          1 YL8      -0.108333
     11 F03        -23.6080   -19.0790    -8.0690 f          1 YL8      -0.108333
     12 F04        -22.1730   -18.3330    -9.5210 f          1 YL8      -0.108333
     13 F09        -26.7960   -20.2030   -12.8210 f          1 YL8      -0.108333
     14 F10        -27.3980   -20.6410   -10.7790 f          1 YL8      -0.108333
     15 F11        -27.1210   -22.2590   -12.1940 f          1 YL8      -0.108333
     16 N15        -22.4610   -23.9550   -13.3400 nd         1 YL8      -0.510800
     17 N16        -21.2820   -24.6010   -13.6160 na         1 YL8       0.116600
     18 N17        -20.2280   -24.1660   -12.8540 nd         1 YL8      -0.159800
     19 N18        -20.7200   -23.2390   -12.0840 nc         1 YL8      -0.375000
     20 H1         -25.2560   -19.5830    -9.9250 ha         1 YL8       0.146000
     21 H2         -24.6940   -22.7290   -12.8260 ha         1 YL8       0.155500
     22 H3         -21.3590   -21.3660   -10.4330 ha         1 YL8       0.155500
     23 H4         -21.1850   -25.3360   -14.3170 hn         1 YL8       0.412000
@<TRIPOS>BOND
     1     1     2 1   
     2     1    10 1   
     3     1    11 1   
     4     1    12 1   
     5     2     3 ar  
     6     2     9 ar  
     7     3     4 ar  
     8     3    20 1   
     9     4     5 1   
    10     4     6 ar  
    11     5    13 1   
    12     5    14 1   
    13     5    15 1   
    14     6     7 ar  
    15     6    21 1   
    16     7     8 1   
    17     7     9 ar  
    18     8    16 2   
    19     8    19 1   
    20     9    22 1   
    21    16    17 1   
    22    17    18 1   
    23    17    23 1   
    24    18    19 2   
@<TRIPOS>SUBSTRUCTURE
     1 YL8         1 TEMP              0 ****  ****    0 ROOT
