@<TRIPOS>MOLECULE
YL8
   23    24     1     0     0
SMALL
abcg2


@<TRIPOS>ATOM
      1 C02        -22.7160   -19.4660    -9.0380 c3         1 YL8       0.362300
      2 C05        -23.2500   -20.3970   -10.0860 ca         1 YL8      -0.211300
      3 C06        -24.5890   -20.3090   -10.4390 ca         1 YL8       0.000000
      4 C07        -25.0900   -21.1540   -11.4200 ca         1 YL8      -0.211300
      5 C08        -26.5360   -21.0400   -11.8050 c3         1 YL8       0.362300
      6 C12        -24.2650   -22.0730   -12.0460 ca         1 YL8      -0.003000
      7 C13        -22.9230   -22.1540   -11.6910 ca         1 YL8      -0.132500
      8 C14        -22.0510   -23.1270   -12.3400 cc         1 YL8       0.547500
      9 C19        -22.4160   -21.3110   -10.7080 ca         1 YL8      -0.003000
     10 F01        -21.5210   -19.8450    -8.5830 f          1 YL8      -0.108333
     11 F03        -23.5370   -19.3900    -7.9860 f          1 YL8      -0.108333
     12 F04        -22.5820   -18.2210    -9.5150 f          1 YL8      -0.108333
     13 F09        -26.7690   -19.9250   -12.5080 f          1 YL8      -0.108333
     14 F10        -27.3280   -20.9910   -10.7280 f          1 YL8      -0.108333
     15 F11        -26.9440   -22.0660   -12.5520 f          1 YL8      -0.108333
     16 N15        -22.4490   -23.9810   -13.2620 nd         1 YL8      -0.510800
     17 N16        -21.3440   -24.6200   -13.5230 na         1 YL8       0.116600
     18 N17        -20.3160   -24.2220   -12.8360 nd         1 YL8      -0.159800
     19 N18        -20.7410   -23.2710   -12.0740 nc         1 YL8      -0.375000
     20 H1         -25.2380   -19.5940    -9.9490 ha         1 YL8       0.146000
     21 H2         -24.6540   -22.7330   -12.8090 ha         1 YL8       0.155500
     22 H3         -21.3710   -21.3840   -10.4370 ha         1 YL8       0.155500
     23 H4         -21.2860   -25.3660   -14.2060 hn         1 YL8       0.412000
@<TRIPOS>BOND
     1     1     2 1   
     2     1    10 1   
     3     1    11 1   
     4     1    12 1   
     5     2     3 ar  
     6     2     9 ar  
     7     3     4 ar  
     8     3    20 1   
     9     4     5 1   
    10     4     6 ar  
    11     5    13 1   
    12     5    14 1   
    13     5    15 1   
    14     6     7 ar  
    15     6    21 1   
    16     7     8 1   
    17     7     9 ar  
    18     8    16 2   
    19     8    19 1   
    20     9    22 1   
    21    16    17 1   
    22    17    18 1   
    23    17    23 1   
    24    18    19 2   
@<TRIPOS>SUBSTRUCTURE
     1 YL8         1 TEMP              0 ****  ****    0 ROOT
