@<TRIPOS>MOLECULE
YL9
   60    63     1     0     0
SMALL
No Charge or Current Charge


@<TRIPOS>ATOM
      1 C10        -22.0350   -11.5950    10.1820 cc         1 YL9      -0.164400
      2 C11        -21.6410   -11.8350     8.7970 ca         1 YL9       0.102200
      3 C12        -20.5350   -11.1710     8.2420 ca         1 YL9      -0.108000
      4 C13        -20.1420   -11.4350     6.9220 ca         1 YL9       0.162000
      5 N05        -22.8210   -10.5740    12.0550 na         1 YL9      -0.191700
      6 C01        -22.4250   -12.2660    16.1890 c3         1 YL9      -0.093100
      7 C02        -23.0550   -11.7740    14.8660 c3         1 YL9       0.188000
      8 C03        -22.5540   -12.5280    13.6240 ca         1 YL9      -0.134300
      9 C04        -22.4700   -11.8820    12.3720 ca         1 YL9      -0.056200
     10 C06        -22.5610   -10.3910    10.6700 cd         1 YL9      -0.044300
     11 C07        -22.8550    -9.1290     9.9030 c          1 YL9       0.721200
     12 C15        -20.8420   -12.3770     6.1370 ca         1 YL9      -0.160300
     13 C16        -20.4270   -12.6780     4.6920 c3         1 YL9      -0.200100
     14 C18        -21.1140   -10.0280     3.8510 c3         1 YL9      -0.323100
     15 C21        -21.9390   -13.0540     6.7030 ca         1 YL9      -0.067000
     16 C22        -22.3320   -12.7860     8.0260 ca         1 YL9      -0.128000
     17 C23        -22.0090   -12.5320    11.2610 ca         1 YL9      -0.084800
     18 C24        -21.6060   -13.8720    11.2870 ca         1 YL9      -0.063000
     19 C25        -21.6970   -14.5570    12.5130 ca         1 YL9      -0.166000
     20 C26        -22.1680   -13.8940    13.6700 ca         1 YL9      -0.109000
     21 C28        -25.3620   -12.9100    15.3100 c5         1 YL9       0.064000
     22 C29        -26.7800   -12.2740    15.1800 c5         1 YL9       0.157300
     23 C30        -27.8130   -13.1200    14.4030 c3         1 YL9      -0.087400
     24 C31        -28.1590   -14.4570    15.0880 c3         1 YL9       0.150800
     25 C34        -25.2680   -10.7010    14.4340 c          1 YL9       0.692100
     26 F14        -19.0770   -10.7780     6.4080 f          1 YL9      -0.200000
     27 N27        -24.5310   -11.7660    14.9300 n          1 YL9      -0.442800
     28 N32        -29.1590   -15.2170    14.3160 n8         1 YL9      -0.990200
     29 O08        -22.6560    -9.0720     8.6980 o          1 YL9      -0.693000
     30 O09        -23.3110    -8.1840    10.5340 o          1 YL9      -0.693000
     31 O19        -20.6560   -11.9770     2.1330 o          1 YL9      -0.535000
     32 O20        -22.7590   -12.0690     3.5420 o          1 YL9      -0.535000
     33 O33        -26.5920   -11.0090    14.5000 os         1 YL9      -0.413100
     34 O35        -24.8130    -9.6590    13.9890 o          1 YL9      -0.526000
     35 S17        -21.3290   -11.7540     3.4190 s6         1 YL9       1.061000
     36 H121       -19.9820   -10.4480     8.8340 ha         1 YL9       0.147000
     37 H051       -23.2830    -9.9020    12.6620 hn         1 YL9       0.390000
     38 H011       -22.7150   -11.6050    17.0140 hc         1 YL9       0.037700
     39 H012       -22.7490   -13.2810    16.4450 hc         1 YL9       0.037700
     40 H013       -21.3310   -12.2590    16.1180 hc         1 YL9       0.037700
     41 H021       -22.7140   -10.7340    14.7650 h1         1 YL9       0.084700
     42 H162       -20.5870   -13.7370     4.4610 h1         1 YL9       0.096700
     43 H161       -19.3670   -12.4500     4.5350 h1         1 YL9       0.096700
     44 H183       -21.5660    -9.8720     4.8360 h1         1 YL9       0.106700
     45 H182       -20.0390    -9.8210     3.8710 h1         1 YL9       0.106700
     46 H181       -21.6180    -9.4300     3.0860 h1         1 YL9       0.106700
     47 H211       -22.4900   -13.7890     6.1190 ha         1 YL9       0.109000
     48 H221       -23.1770   -13.3170     8.4560 ha         1 YL9       0.121000
     49 H241       -21.2410   -14.3680    10.3900 ha         1 YL9       0.108000
     50 H251       -21.4020   -15.6010    12.5710 ha         1 YL9       0.093000
     51 H261       -22.2300   -14.4570    14.5970 ha         1 YL9       0.089000
     52 H281       -25.2160   -13.7500    14.6170 h1         1 YL9       0.058700
     53 H1         -25.1610   -13.2520    16.3330 h1         1 YL9       0.058700
     54 H2         -27.1800   -12.0540    16.1800 h1         1 YL9       0.052700
     55 H301       -28.7330   -12.5370    14.2810 hc         1 YL9       0.071200
     56 H302       -27.4330   -13.3240    13.3950 hc         1 YL9       0.071200
     57 H311       -27.2540   -15.0720    15.1860 h1         1 YL9       0.024700
     58 H312       -28.5610   -14.2670    16.0930 h1         1 YL9       0.024700
     59 H322       -29.3960   -16.0750    14.8280 hn         1 YL9       0.390000
     60 H3         -30.0420   -14.6930    14.3030 hn         1 YL9       0.390000
@<TRIPOS>BOND
     1     1     2 1   
     2     1    10 2   
     3     1    17 1   
     4     2     3 ar  
     5     2    16 ar  
     6     3     4 ar  
     7     3    36 1   
     8     4    12 ar  
     9     4    26 1   
    10     5     9 1   
    11     5    10 1   
    12     5    37 1   
    13     6     7 1   
    14     6    38 1   
    15     6    39 1   
    16     6    40 1   
    17     7     8 1   
    18     7    27 1   
    19     7    41 1   
    20     8     9 ar  
    21     8    20 ar  
    22     9    17 ar  
    23    10    11 1   
    24    11    29 1   
    25    11    30 1   
    26    12    13 1   
    27    12    15 ar  
    28    13    35 1   
    29    13    42 1   
    30    13    43 1   
    31    14    35 1   
    32    14    44 1   
    33    14    45 1   
    34    14    46 1   
    35    15    16 ar  
    36    15    47 1   
    37    16    48 1   
    38    17    18 ar  
    39    18    19 ar  
    40    18    49 1   
    41    19    20 ar  
    42    19    50 1   
    43    20    51 1   
    44    21    22 1   
    45    21    27 1   
    46    21    52 1   
    47    21    53 1   
    48    22    23 1   
    49    22    33 1   
    50    22    54 1   
    51    23    24 1   
    52    23    55 1   
    53    23    56 1   
    54    24    28 1   
    55    24    57 1   
    56    24    58 1   
    57    25    27 1   
    58    25    33 1   
    59    25    34 2   
    60    28    59 1   
    61    28    60 1   
    62    31    35 2   
    63    32    35 2   
@<TRIPOS>SUBSTRUCTURE
     1 YL9         1 TEMP              0 ****  ****    0 ROOT
