@<TRIPOS>MOLECULE
YL9
   60    63     1     0     0
SMALL
abcg2


@<TRIPOS>ATOM
      1 C10        -22.0950   -11.5070    10.2680 cc         1 YL9      -0.164400
      2 C11        -21.7170   -11.7800     8.8770 ca         1 YL9       0.102200
      3 C12        -20.6900   -11.0790     8.2460 ca         1 YL9      -0.108000
      4 C13        -20.3280   -11.4190     6.9610 ca         1 YL9       0.162000
      5 N05        -22.7730   -10.5670    12.1730 na         1 YL9      -0.191700
      6 C01        -22.4870   -12.3440    16.2890 c3         1 YL9      -0.093100
      7 C02        -22.9950   -11.7760    14.9710 c3         1 YL9       0.188000
      8 C03        -22.4930   -12.5020    13.7410 ca         1 YL9      -0.134300
      9 C04        -22.4590   -11.8490    12.5000 ca         1 YL9      -0.056200
     10 C06        -22.5610   -10.3450    10.8410 cd         1 YL9      -0.044300
     11 C07        -22.9110    -8.9940    10.2630 c          1 YL9       0.721200
     12 C15        -20.9460   -12.4310     6.2390 ca         1 YL9      -0.160300
     13 C16        -20.5370   -12.7710     4.8470 c3         1 YL9      -0.200100
     14 C18        -21.2340   -10.2270     3.7660 c3         1 YL9      -0.323100
     15 C21        -21.9670   -13.1250     6.8820 ca         1 YL9      -0.067000
     16 C22        -22.3420   -12.8140     8.1780 ca         1 YL9      -0.128000
     17 C23        -22.0260   -12.4820    11.3150 ca         1 YL9      -0.084800
     18 C24        -21.6130   -13.8190    11.3660 ca         1 YL9      -0.063000
     19 C25        -21.6490   -14.4740    12.5790 ca         1 YL9      -0.166000
     20 C26        -22.0830   -13.8220    13.7460 ca         1 YL9      -0.109000
     21 C28        -25.2740   -12.9100    14.9780 c5         1 YL9       0.064000
     22 C29        -26.6730   -12.2920    15.0200 c5         1 YL9       0.157300
     23 C30        -27.6950   -12.9870    14.1500 c3         1 YL9      -0.087400
     24 C31        -27.9820   -14.3990    14.6450 c3         1 YL9       0.150800
     25 C34        -25.1620   -10.6370    14.6110 c          1 YL9       0.692100
     26 F14        -19.3200   -10.7440     6.3800 f          1 YL9      -0.200000
     27 N27        -24.4490   -11.7260    14.9660 n          1 YL9      -0.442800
     28 N32        -28.9890   -15.0310    13.8070 n8         1 YL9      -0.990200
     29 O08        -22.7670    -8.8540     9.0380 o          1 YL9      -0.693000
     30 O09        -23.3230    -8.1600    11.0930 o          1 YL9      -0.693000
     31 O19        -21.0750   -12.4090     2.2890 o          1 YL9      -0.535000
     32 O20        -22.9700   -12.2030     3.9200 o          1 YL9      -0.535000
     33 O33        -26.4650   -10.9420    14.5680 os         1 YL9      -0.413100
     34 O35        -24.7540    -9.5240    14.3600 o          1 YL9      -0.526000
     35 S17        -21.5650   -11.9680     3.5950 s6         1 YL9       1.061000
     36 H121       -20.1650   -10.2860     8.7610 ha         1 YL9       0.147000
     37 H051       -23.1800    -9.8680    12.7780 hn         1 YL9       0.390000
     38 H011       -22.8280   -11.7190    17.1140 hc         1 YL9       0.037700
     39 H012       -22.8340   -13.3600    16.4740 hc         1 YL9       0.037700
     40 H013       -21.3980   -12.3550    16.3000 hc         1 YL9       0.037700
     41 H021       -22.6580   -10.7380    14.9180 h1         1 YL9       0.084700
     42 H162       -20.6700   -13.8360     4.6420 h1         1 YL9       0.096700
     43 H161       -19.5030   -12.5110     4.6170 h1         1 YL9       0.096700
     44 H183       -21.5600    -9.8760     4.7420 h1         1 YL9       0.106700
     45 H182       -20.1740   -10.0370     3.6190 h1         1 YL9       0.106700
     46 H181       -21.8120    -9.7260     2.9890 h1         1 YL9       0.106700
     47 H211       -22.4670   -13.9300     6.3590 ha         1 YL9       0.109000
     48 H221       -23.1390   -13.3740     8.6500 ha         1 YL9       0.121000
     49 H241       -21.2670   -14.3270    10.4740 ha         1 YL9       0.108000
     50 H251       -21.3350   -15.5080    12.6420 ha         1 YL9       0.093000
     51 H261       -22.0840   -14.3830    14.6720 ha         1 YL9       0.089000
     52 H281       -25.1160   -13.5170    14.0790 h1         1 YL9       0.058700
     53 H1         -25.0840   -13.5390    15.8470 h1         1 YL9       0.058700
     54 H2         -27.0310   -12.2400    16.0530 h1         1 YL9       0.052700
     55 H301       -28.6230   -12.4080    14.1530 hc         1 YL9       0.071200
     56 H302       -27.3360   -13.0260    13.1170 hc         1 YL9       0.071200
     57 H311       -27.0710   -15.0010    14.5860 h1         1 YL9       0.024700
     58 H312       -28.2560   -14.3570    15.7090 h1         1 YL9       0.024700
     59 H322       -29.1200   -15.9890    14.1040 hn         1 YL9       0.390000
     60 H3         -29.8820   -14.5760    13.9550 hn         1 YL9       0.390000
@<TRIPOS>BOND
     1     1     2 1   
     2     1    10 2   
     3     1    17 1   
     4     2     3 ar  
     5     2    16 ar  
     6     3     4 ar  
     7     3    36 1   
     8     4    12 ar  
     9     4    26 1   
    10     5     9 1   
    11     5    10 1   
    12     5    37 1   
    13     6     7 1   
    14     6    38 1   
    15     6    39 1   
    16     6    40 1   
    17     7     8 1   
    18     7    27 1   
    19     7    41 1   
    20     8     9 ar  
    21     8    20 ar  
    22     9    17 ar  
    23    10    11 1   
    24    11    29 1   
    25    11    30 1   
    26    12    13 1   
    27    12    15 ar  
    28    13    35 1   
    29    13    42 1   
    30    13    43 1   
    31    14    35 1   
    32    14    44 1   
    33    14    45 1   
    34    14    46 1   
    35    15    16 ar  
    36    15    47 1   
    37    16    48 1   
    38    17    18 ar  
    39    18    19 ar  
    40    18    49 1   
    41    19    20 ar  
    42    19    50 1   
    43    20    51 1   
    44    21    22 1   
    45    21    27 1   
    46    21    52 1   
    47    21    53 1   
    48    22    23 1   
    49    22    33 1   
    50    22    54 1   
    51    23    24 1   
    52    23    55 1   
    53    23    56 1   
    54    24    28 1   
    55    24    57 1   
    56    24    58 1   
    57    25    27 1   
    58    25    33 1   
    59    25    34 2   
    60    28    59 1   
    61    28    60 1   
    62    31    35 2   
    63    32    35 2   
@<TRIPOS>SUBSTRUCTURE
     1 YL9         1 TEMP              0 ****  ****    0 ROOT
