@<TRIPOS>MOLECULE
YLG
   24    25     1     0     0
SMALL
bcc


@<TRIPOS>ATOM
      1 C4           0.6580    -1.9060     0.1780 c6         1 YLG      -0.030100
      2 C14         -0.4390    -0.8810     0.0780 ca         1 YLG      -0.060300
      3 C5          -0.1450     0.4670    -0.1540 ca         1 YLG      -0.070300
      4 C6          -1.2000     1.3710    -0.2840 ca         1 YLG      -0.125000
      5 C11         -2.5190     0.9650    -0.1630 ca         1 YLG      -0.132000
      6 C8           1.5620     2.2340     0.4540 c3         1 YLG      -0.085100
      7 C10          1.2880     0.9420    -0.3070 c6         1 YLG       0.222800
      8 C12         -2.8080    -0.3710     0.0880 ca         1 YLG      -0.126000
      9 C13         -1.7700    -1.2790     0.2010 ca         1 YLG      -0.131000
     10 N2           2.2100    -0.0760     0.1650 n7         1 YLG      -0.808200
     11 C3           1.9480    -1.3760    -0.4190 c6         1 YLG       0.163800
     12 H41C         0.8280    -2.1650     1.2280 hc         1 YLG       0.054200
     13 H42C         0.3520    -2.8270    -0.3240 hc         1 YLG       0.054200
     14 H31C         2.7760    -2.0460    -0.1850 h1         1 YLG       0.031700
     15 H32C         1.8620    -1.3410    -1.5170 h1         1 YLG       0.031700
     16 H13         -1.9890    -2.3260     0.3820 ha         1 YLG       0.127000
     17 H6          -0.9960     2.4150    -0.4860 ha         1 YLG       0.127000
     18 H10          1.4410     1.1440    -1.3830 h1         1 YLG       0.022700
     19 H11         -3.3180     1.6880    -0.2660 ha         1 YLG       0.129000
     20 H12         -3.8350    -0.7010     0.1870 ha         1 YLG       0.129000
     21 H81C         1.3170     2.1210     1.5110 hc         1 YLG       0.039700
     22 H82C         2.6180     2.4990     0.3750 hc         1 YLG       0.039700
     23 H83C         0.9940     3.0730     0.0560 hc         1 YLG       0.039700
     24 H2           3.1530     0.2170    -0.0540 hn         1 YLG       0.355800
@<TRIPOS>BOND
     1     1     2 1   
     2     1    11 1   
     3     1    12 1   
     4     1    13 1   
     5     2     3 ar  
     6     2     9 ar  
     7     3     4 ar  
     8     3     7 1   
     9     4     5 ar  
    10     4    17 1   
    11     5     8 ar  
    12     5    19 1   
    13     6     7 1   
    14     6    21 1   
    15     6    22 1   
    16     6    23 1   
    17     7    10 1   
    18     7    18 1   
    19     8     9 ar  
    20     8    20 1   
    21     9    16 1   
    22    10    11 1   
    23    10    24 1   
    24    11    14 1   
    25    11    15 1   
@<TRIPOS>SUBSTRUCTURE
     1 YLG         1 TEMP              0 ****  ****    0 ROOT
