@<TRIPOS>MOLECULE
YLH
   63    66     1     0     0
SMALL
No Charge or Current Charge


@<TRIPOS>ATOM
      1 C01        -23.7800   -13.0200    15.5650 c3         1 YLH      -0.097100
      2 C02        -24.1860   -12.4930    14.1690 c3         1 YLH       0.190000
      3 C03        -23.3480   -13.0660    13.0150 ca         1 YLH      -0.129300
      4 C04        -23.1550   -12.3270    11.8300 ca         1 YLH      -0.055200
      5 C06        -23.1670   -10.6570    10.2400 cc         1 YLH      -0.044300
      6 C07        -23.5070    -9.3780     9.5340 c          1 YLH       0.721200
      7 C10        -22.4140   -11.7500     9.7730 cd         1 YLH      -0.162400
      8 C11        -21.5060   -11.7960     8.6040 ca         1 YLH       0.099200
      9 C12        -20.7020   -10.6920     8.2610 ca         1 YLH      -0.106000
     10 C13        -19.8260   -10.7570     7.1670 ca         1 YLH       0.165000
     11 C15        -19.7320   -11.9280     6.3880 ca         1 YLH      -0.165300
     12 C16        -18.7810   -12.0170     5.1880 c3         1 YLH      -0.199100
     13 C18        -20.2510   -10.0170     3.7570 c3         1 YLH      -0.323100
     14 C21        -20.5270   -13.0360     6.7310 ca         1 YLH      -0.069000
     15 C22        -21.4020   -12.9690     7.8300 ca         1 YLH      -0.135000
     16 C23        -22.4020   -12.7950    10.7870 ca         1 YLH      -0.085800
     17 C24        -21.7580   -14.0420    10.8500 ca         1 YLH      -0.065000
     18 C25        -21.9470   -14.8220    12.0070 ca         1 YLH      -0.166000
     19 C26        -22.7390   -14.3460    13.0760 ca         1 YLH      -0.110000
     20 C28        -26.3630   -13.9280    14.0360 c5         1 YLH       0.071000
     21 C29        -27.8100   -13.4310    13.7290 c5         1 YLH       0.157300
     22 C30        -28.7470   -13.3770    14.9660 c3         1 YLH      -0.088400
     23 C31        -28.3050   -12.4320    16.1150 c3         1 YLH      -0.079400
     24 C32        -29.2810   -12.4500    17.3090 c3         1 YLH       0.148800
     25 C35        -26.3990   -11.6410    13.3880 c          1 YLH       0.693100
     26 F14        -19.0630    -9.6800     6.8720 f          1 YLH      -0.199000
     27 N05        -23.6260   -11.0670    11.5090 na         1 YLH      -0.191700
     28 N27        -25.6300   -12.6650    13.9200 n          1 YLH      -0.446800
     29 N33        -28.8410   -11.5410    18.3820 n8         1 YLH      -0.991200
     30 O08        -23.2000    -9.2090     8.3630 o          1 YLH      -0.693000
     31 O09        -24.1550    -8.5490    10.1600 o          1 YLH      -0.693000
     32 O19        -20.6280   -12.5980     3.3480 o          1 YLH      -0.536500
     33 O20        -18.4510   -11.5510     2.5860 o          1 YLH      -0.536500
     34 O34        -27.6650   -12.0960    13.1830 os         1 YLH      -0.411100
     35 O36        -26.0070   -10.5150    13.1200 o          1 YLH      -0.530000
     36 S17        -19.5300   -11.6480     3.5770 s6         1 YLH       1.062000
     37 H012       -24.3260   -12.4770    16.3450 hc         1 YLH       0.037367
     38 H011       -24.0030   -14.0860    15.6800 hc         1 YLH       0.037367
     39 H013       -22.7070   -12.8680    15.7340 hc         1 YLH       0.037367
     40 H021       -23.9730   -11.4160    14.2070 h1         1 YLH       0.086700
     41 H121       -20.7310    -9.7870     8.8580 ha         1 YLH       0.153000
     42 H162       -18.3690   -13.0280     5.1000 h1         1 YLH       0.096700
     43 H161       -17.9470   -11.3160     5.2990 h1         1 YLH       0.096700
     44 H181       -21.0180   -10.0760     4.5350 h1         1 YLH       0.107033
     45 H183       -19.4490    -9.3280     4.0410 h1         1 YLH       0.107033
     46 H182       -20.6870    -9.7410     2.7920 h1         1 YLH       0.107033
     47 H211       -20.4760   -13.9500     6.1430 ha         1 YLH       0.110000
     48 H221       -22.0290   -13.8260     8.0580 ha         1 YLH       0.119000
     49 H241       -21.1250   -14.4050    10.0470 ha         1 YLH       0.108000
     50 H251       -21.4720   -15.7970    12.0810 ha         1 YLH       0.093000
     51 H261       -22.8610   -14.9790    13.9500 ha         1 YLH       0.090000
     52 H281       -26.0180   -14.6550    13.2910 h1         1 YLH       0.057700
     53 H1         -26.2760   -14.3760    15.0340 h1         1 YLH       0.057700
     54 H2         -28.2830   -14.0720    12.9710 h1         1 YLH       0.077700
     55 H301       -29.7490   -13.0770    14.6360 hc         1 YLH       0.046200
     56 H302       -28.8570   -14.3910    15.3710 hc         1 YLH       0.046200
     57 H312       -27.3060   -12.7200    16.4640 hc         1 YLH       0.059200
     58 H311       -28.2300   -11.4060    15.7340 hc         1 YLH       0.059200
     59 H322       -30.2800   -12.1400    16.9750 h1         1 YLH       0.022200
     60 H321       -29.3500   -13.4680    17.7170 h1         1 YLH       0.022200
     61 H051       -24.2770   -10.5290    12.0770 hn         1 YLH       0.391000
     62 H332       -29.4880   -11.6250    19.1760 hn         1 YLH       0.387500
     63 H331       -27.9490   -11.8780    18.7610 hn         1 YLH       0.387500
@<TRIPOS>BOND
     1     1     2 1   
     2     1    37 1   
     3     1    38 1   
     4     1    39 1   
     5     2     3 1   
     6     2    28 1   
     7     2    40 1   
     8     3     4 ar  
     9     3    19 ar  
    10     4    16 ar  
    11     4    27 1   
    12     5     6 1   
    13     5     7 2   
    14     5    27 1   
    15     6    30 1   
    16     6    31 1   
    17     7     8 1   
    18     7    16 1   
    19     8     9 ar  
    20     8    15 ar  
    21     9    10 ar  
    22     9    41 1   
    23    10    11 ar  
    24    10    26 1   
    25    11    12 1   
    26    11    14 ar  
    27    12    36 1   
    28    12    42 1   
    29    12    43 1   
    30    13    36 1   
    31    13    44 1   
    32    13    45 1   
    33    13    46 1   
    34    14    15 ar  
    35    14    47 1   
    36    15    48 1   
    37    16    17 ar  
    38    17    18 ar  
    39    17    49 1   
    40    18    19 ar  
    41    18    50 1   
    42    19    51 1   
    43    20    21 1   
    44    20    28 1   
    45    20    52 1   
    46    20    53 1   
    47    21    22 1   
    48    21    34 1   
    49    21    54 1   
    50    22    23 1   
    51    22    55 1   
    52    22    56 1   
    53    23    24 1   
    54    23    57 1   
    55    23    58 1   
    56    24    29 1   
    57    24    59 1   
    58    24    60 1   
    59    25    28 1   
    60    25    34 1   
    61    25    35 2   
    62    27    61 1   
    63    29    62 1   
    64    29    63 1   
    65    32    36 2   
    66    33    36 2   
@<TRIPOS>SUBSTRUCTURE
     1 YLH         1 TEMP              0 ****  ****    0 ROOT
