@<TRIPOS>MOLECULE
YLH
   63    66     1     0     0
SMALL
abcg2


@<TRIPOS>ATOM
      1 C01        -23.9190   -12.8030    15.7550 c3         1 YLH      -0.097100
      2 C02        -24.0770   -12.1760    14.3760 c3         1 YLH       0.190000
      3 C03        -23.1670   -12.7540    13.3120 ca         1 YLH      -0.129300
      4 C04        -22.9380   -12.0490    12.1210 ca         1 YLH      -0.055200
      5 C06        -22.8930   -10.5170    10.4830 cc         1 YLH      -0.044300
      6 C07        -23.3210    -9.2110     9.8500 c          1 YLH       0.721200
      7 C10        -22.1200   -11.5680    10.0360 cd         1 YLH      -0.162400
      8 C11        -21.3970   -11.7350     8.7720 ca         1 YLH       0.099200
      9 C12        -20.5000   -10.7790     8.2970 ca         1 YLH      -0.106000
     10 C13        -19.8150   -11.0140     7.1250 ca         1 YLH       0.165000
     11 C15        -19.9660   -12.1700     6.3720 ca         1 YLH      -0.165300
     12 C16        -19.2230   -12.3880     5.0970 c3         1 YLH      -0.199100
     13 C18        -20.5160   -10.2390     3.7560 c3         1 YLH      -0.323100
     14 C21        -20.8570   -13.1210     6.8610 ca         1 YLH      -0.069000
     15 C22        -21.5570   -12.9120     8.0360 ca         1 YLH      -0.135000
     16 C23        -22.1360   -12.5560    11.0760 ca         1 YLH      -0.085800
     17 C24        -21.5210   -13.8050    11.2330 ca         1 YLH      -0.065000
     18 C25        -21.7350   -14.5040    12.4010 ca         1 YLH      -0.166000
     19 C26        -22.5500   -13.9860    13.4220 ca         1 YLH      -0.110000
     20 C28        -26.1430   -13.4830    13.6430 c5         1 YLH       0.071000
     21 C29        -27.5620   -12.9800    13.3410 c5         1 YLH       0.157300
     22 C30        -28.5780   -13.2460    14.4370 c3         1 YLH      -0.088400
     23 C31        -28.2200   -12.7170    15.8210 c3         1 YLH      -0.079400
     24 C32        -29.2910   -13.0750    16.8420 c3         1 YLH       0.148800
     25 C35        -26.1810   -11.1760    13.5530 c          1 YLH       0.693100
     26 F14        -18.9520   -10.0780     6.6900 f          1 YLH      -0.199000
     27 N05        -23.3720   -10.8220    11.7270 na         1 YLH      -0.191700
     28 N27        -25.4610   -12.2460    13.9370 n          1 YLH      -0.446800
     29 N33        -28.9460   -12.5670    18.1610 n8         1 YLH      -0.991200
     30 O08        -22.9490    -9.0000     8.6850 o          1 YLH      -0.693000
     31 O09        -24.0230    -8.4830    10.5800 o          1 YLH      -0.693000
     32 O19        -21.5000   -12.6840     3.7520 o          1 YLH      -0.536500
     33 O20        -19.3960   -12.2480     2.4600 o          1 YLH      -0.536500
     34 O34        -27.3930   -11.5650    13.1440 os         1 YLH      -0.411100
     35 O36        -25.8430   -10.0110    13.5460 o          1 YLH      -0.530000
     36 S17        -20.2190   -11.9910     3.6410 s6         1 YLH       1.062000
     37 H012       -24.5600   -12.2850    16.4670 hc         1 YLH       0.037367
     38 H011       -24.1860   -13.8600    15.7720 hc         1 YLH       0.037367
     39 H013       -22.8890   -12.7120    16.0960 hc         1 YLH       0.037367
     40 H021       -23.8510   -11.1120    14.4790 h1         1 YLH       0.086700
     41 H121       -20.3310    -9.8610     8.8410 ha         1 YLH       0.153000
     42 H162       -18.9700   -13.4420     4.9580 h1         1 YLH       0.096700
     43 H161       -18.3040   -11.8070     5.0190 h1         1 YLH       0.096700
     44 H181       -21.1020   -10.0140     4.6430 h1         1 YLH       0.107033
     45 H183       -19.5690    -9.7040     3.7720 h1         1 YLH       0.107033
     46 H182       -21.0820    -9.9620     2.8670 h1         1 YLH       0.107033
     47 H211       -20.9990   -14.0430     6.3120 ha         1 YLH       0.110000
     48 H221       -22.2510   -13.6680     8.3800 ha         1 YLH       0.119000
     49 H241       -20.8860   -14.2120    10.4570 ha         1 YLH       0.108000
     50 H251       -21.2680   -15.4700    12.5430 ha         1 YLH       0.093000
     51 H261       -22.6860   -14.5770    14.3180 ha         1 YLH       0.090000
     52 H281       -25.6950   -13.9940    12.7870 h1         1 YLH       0.057700
     53 H1         -26.1260   -14.1700    14.4910 h1         1 YLH       0.057700
     54 H2         -27.9310   -13.3930    12.4020 h1         1 YLH       0.077700
     55 H301       -29.5420   -12.8350    14.1240 hc         1 YLH       0.046200
     56 H302       -28.7130   -14.3320    14.4820 hc         1 YLH       0.046200
     57 H312       -27.2620   -13.1310    16.1520 hc         1 YLH       0.059200
     58 H311       -28.1060   -11.6300    15.8020 hc         1 YLH       0.059200
     59 H322       -30.2380   -12.6190    16.5380 h1         1 YLH       0.022200
     60 H321       -29.4540   -14.1630    16.8180 h1         1 YLH       0.022200
     61 H051       -23.9910   -10.2010    12.2290 hn         1 YLH       0.391000
     62 H332       -29.6950   -12.7750    18.8090 hn         1 YLH       0.387500
     63 H331       -28.1390   -13.0700    18.5100 hn         1 YLH       0.387500
@<TRIPOS>BOND
     1     1     2 1   
     2     1    37 1   
     3     1    38 1   
     4     1    39 1   
     5     2     3 1   
     6     2    28 1   
     7     2    40 1   
     8     3     4 ar  
     9     3    19 ar  
    10     4    16 ar  
    11     4    27 1   
    12     5     6 1   
    13     5     7 2   
    14     5    27 1   
    15     6    30 1   
    16     6    31 1   
    17     7     8 1   
    18     7    16 1   
    19     8     9 ar  
    20     8    15 ar  
    21     9    10 ar  
    22     9    41 1   
    23    10    11 ar  
    24    10    26 1   
    25    11    12 1   
    26    11    14 ar  
    27    12    36 1   
    28    12    42 1   
    29    12    43 1   
    30    13    36 1   
    31    13    44 1   
    32    13    45 1   
    33    13    46 1   
    34    14    15 ar  
    35    14    47 1   
    36    15    48 1   
    37    16    17 ar  
    38    17    18 ar  
    39    17    49 1   
    40    18    19 ar  
    41    18    50 1   
    42    19    51 1   
    43    20    21 1   
    44    20    28 1   
    45    20    52 1   
    46    20    53 1   
    47    21    22 1   
    48    21    34 1   
    49    21    54 1   
    50    22    23 1   
    51    22    55 1   
    52    22    56 1   
    53    23    24 1   
    54    23    57 1   
    55    23    58 1   
    56    24    29 1   
    57    24    59 1   
    58    24    60 1   
    59    25    28 1   
    60    25    34 1   
    61    25    35 2   
    62    27    61 1   
    63    29    62 1   
    64    29    63 1   
    65    32    36 2   
    66    33    36 2   
@<TRIPOS>SUBSTRUCTURE
     1 YLH         1 TEMP              0 ****  ****    0 ROOT
