@<TRIPOS>MOLECULE
YLI
   41    44     1     0     0
SMALL
abcg2


@<TRIPOS>ATOM
      1 C1         119.8520   143.2300   132.2750 c5         1 YLI      -0.044200
      2 C2         118.9210   143.5880   133.3960 c2         1 YLI      -0.213200
      3 C3         119.3670   143.1610   134.5710 c2         1 YLI      -0.226200
      4 C10        121.8310   143.6170   136.3630 ca         1 YLI       0.030000
      5 C11        122.8000   144.4590   136.8860 ca         1 YLI      -0.330500
      6 C12        123.7640   145.0240   136.0530 ca         1 YLI       0.040000
      7 C13        123.7680   144.7040   134.7160 ca         1 YLI      -0.206000
      8 C18        122.3240   142.0740   130.9420 ca         1 YLI      -0.085300
      9 C19        122.3090   140.7830   130.4200 ca         1 YLI      -0.101000
     10 C20        122.3450   140.5560   129.0540 ca         1 YLI      -0.083500
     11 C21        122.4040   141.6440   128.1940 ca         1 YLI      -0.014900
     12 C22        122.4220   142.9390   128.6850 ca         1 YLI      -0.083500
     13 C23        122.3780   143.1460   130.0580 ca         1 YLI      -0.101000
     14 C4         120.6940   142.4500   134.4520 c5         1 YLI       0.021800
     15 C5         120.8010   142.2110   132.9290 c5         1 YLI      -0.063700
     16 C6         122.2450   142.2570   132.4360 c6         1 YLI       0.267800
     17 C8         122.8060   143.8340   134.1770 ca         1 YLI       0.360000
     18 C9         121.8080   143.3070   135.0110 ca         1 YLI      -0.158300
     19 N17        124.2640   144.2480   139.0780 n8         1 YLI      -1.000100
     20 N7         122.8490   143.5080   132.8460 nu         1 YLI      -0.925200
     21 O15        121.6730   144.1880   139.2290 o          1 YLI      -0.549500
     22 O16        122.9160   146.3040   138.7670 o          1 YLI      -0.549500
     23 S14        122.8010   144.8610   138.5960 sy         1 YLI       1.131600
     24 BR24       122.4750   141.3560   126.3280 br         1 YLI      -0.093100
     25 H1B        120.3780   144.1220   131.9180 hc         1 YLI       0.060200
     26 H1A        119.3340   142.8110   131.4100 hc         1 YLI       0.060200
     27 H2         118.0140   144.1590   133.2470 ha         1 YLI       0.190000
     28 H3         118.8860   143.3310   135.5270 ha         1 YLI       0.193000
     29 H10        121.0750   143.1890   137.0100 ha         1 YLI       0.136000
     30 H12        124.5210   145.6900   136.4450 ha         1 YLI       0.132000
     31 H13        124.5290   145.1210   134.0670 ha         1 YLI       0.117000
     32 H19        122.2740   139.9320   131.0910 ha         1 YLI       0.123000
     33 H20        122.3350   139.5430   128.6750 ha         1 YLI       0.132000
     34 H22        122.4690   143.7880   128.0170 ha         1 YLI       0.132000
     35 H23        122.3900   144.1620   130.4300 ha         1 YLI       0.123000
     36 H4         120.6850   141.4980   134.9920 hc         1 YLI       0.064700
     37 H5         120.4180   141.2080   132.7250 hc         1 YLI       0.059700
     38 H6         122.7750   141.4110   132.9000 h1         1 YLI       0.044700
     39 H17B       124.5470   144.6380   139.9720 hn         1 YLI       0.469000
     40 H17A       124.2630   143.2340   139.1230 hn         1 YLI       0.469000
     41 H7         123.7300   143.7160   132.3990 hn         1 YLI       0.470000
@<TRIPOS>BOND
     1     1     2 1   
     2     1    15 1   
     3     1    25 1   
     4     1    26 1   
     5     2     3 2   
     6     2    27 1   
     7     3    14 1   
     8     3    28 1   
     9     4     5 ar  
    10     4    18 ar  
    11     4    29 1   
    12     5     6 ar  
    13     5    23 1   
    14     6     7 ar  
    15     6    30 1   
    16     7    17 ar  
    17     7    31 1   
    18     8     9 ar  
    19     8    13 ar  
    20     8    16 1   
    21     9    10 ar  
    22     9    32 1   
    23    10    11 ar  
    24    10    33 1   
    25    11    12 ar  
    26    11    24 1   
    27    12    13 ar  
    28    12    34 1   
    29    13    35 1   
    30    14    15 1   
    31    14    18 1   
    32    14    36 1   
    33    15    16 1   
    34    15    37 1   
    35    16    20 1   
    36    16    38 1   
    37    17    18 ar  
    38    17    20 1   
    39    19    23 1   
    40    19    39 1   
    41    19    40 1   
    42    20    41 1   
    43    21    23 2   
    44    22    23 2   
@<TRIPOS>SUBSTRUCTURE
     1 YLI         1 TEMP              0 ****  ****    0 ROOT
