@<TRIPOS>MOLECULE
YLI
   41    44     1     0     0
SMALL
No Charge or Current Charge


@<TRIPOS>ATOM
      1 C1         119.9530   143.3150   132.5070 c5         1 YLI      -0.044200
      2 C2         118.9940   143.5010   133.6600 c2         1 YLI      -0.213200
      3 C3         119.4690   142.9620   134.7830 c2         1 YLI      -0.226200
      4 C10        121.8900   143.7850   136.3620 ca         1 YLI       0.030000
      5 C11        122.8800   144.6740   136.8290 ca         1 YLI      -0.330500
      6 C12        123.9190   145.0800   135.9750 ca         1 YLI       0.040000
      7 C13        123.9680   144.5890   134.6620 ca         1 YLI      -0.206000
      8 C18        122.3140   141.9810   130.8770 ca         1 YLI      -0.085300
      9 C19        122.4000   140.7110   130.2680 ca         1 YLI      -0.101000
     10 C20        122.3900   140.5890   128.8670 ca         1 YLI      -0.083500
     11 C21        122.2940   141.7370   128.0640 ca         1 YLI      -0.014900
     12 C22        122.2070   143.0070   128.6580 ca         1 YLI      -0.083500
     13 C23        122.2170   143.1290   130.0580 ca         1 YLI      -0.101000
     14 C4         120.8270   142.3200   134.5730 c5         1 YLI       0.021800
     15 C5         120.8900   142.1590   133.0100 c5         1 YLI      -0.063700
     16 C6         122.3180   142.0820   132.4110 c6         1 YLI       0.267800
     17 C8         122.9870   143.7050   134.1970 ca         1 YLI       0.360000
     18 C9         121.9240   143.2980   135.0380 ca         1 YLI      -0.158300
     19 N17        123.7800   144.2210   139.2800 n8         1 YLI      -1.000100
     20 N7         123.0840   143.2320   132.8930 nu         1 YLI      -0.925200
     21 O15        121.4960   145.0520   139.0810 o          1 YLI      -0.549500
     22 O16        123.5120   146.5750   138.6090 o          1 YLI      -0.549500
     23 S14        122.8180   145.2910   138.5070 sy         1 YLI       1.131600
     24 Br24       122.2790   141.5710   126.1590 br         1 YLI      -0.093100
     25 H1B        120.5000   144.2450   132.3180 hc         1 YLI       0.060200
     26 H1A        119.4350   143.0420   131.5800 hc         1 YLI       0.060200
     27 H2         118.0300   144.0110   133.5900 ha         1 YLI       0.190000
     28 H3         118.9330   142.9770   135.7350 ha         1 YLI       0.193000
     29 H10        121.0870   143.4680   137.0250 ha         1 YLI       0.136000
     30 H12        124.6910   145.7660   136.3220 ha         1 YLI       0.132000
     31 H13        124.7770   144.8980   134.0070 ha         1 YLI       0.117000
     32 H19        122.4720   139.8160   130.8810 ha         1 YLI       0.123000
     33 H20        122.4560   139.6060   128.4070 ha         1 YLI       0.132000
     34 H22        122.1310   143.8950   128.0350 ha         1 YLI       0.132000
     35 H23        122.1460   144.1180   130.5050 ha         1 YLI       0.123000
     36 H4         120.9040   141.3500   135.0770 hc         1 YLI       0.064700
     37 H5         120.4280   141.2020   132.7390 hc         1 YLI       0.059700
     38 H6         122.7860   141.1700   132.8110 h1         1 YLI       0.044700
     39 H17B       123.1700   143.9280   140.0390 hn         1 YLI       0.469000
     40 H17A       123.7750   143.4300   138.6420 hn         1 YLI       0.469000
     41 H7         123.9090   143.5160   132.3690 hn         1 YLI       0.470000
@<TRIPOS>BOND
     1     1     2 1   
     2     1    15 1   
     3     1    25 1   
     4     1    26 1   
     5     2     3 2   
     6     2    27 1   
     7     3    14 1   
     8     3    28 1   
     9     4     5 ar  
    10     4    18 ar  
    11     4    29 1   
    12     5     6 ar  
    13     5    23 1   
    14     6     7 ar  
    15     6    30 1   
    16     7    17 ar  
    17     7    31 1   
    18     8     9 ar  
    19     8    13 ar  
    20     8    16 1   
    21     9    10 ar  
    22     9    32 1   
    23    10    11 ar  
    24    10    33 1   
    25    11    12 ar  
    26    11    24 1   
    27    12    13 ar  
    28    12    34 1   
    29    13    35 1   
    30    14    15 1   
    31    14    18 1   
    32    14    36 1   
    33    15    16 1   
    34    15    37 1   
    35    16    20 1   
    36    16    38 1   
    37    17    18 ar  
    38    17    20 1   
    39    19    23 1   
    40    19    39 1   
    41    19    40 1   
    42    20    41 1   
    43    21    23 2   
    44    22    23 2   
@<TRIPOS>SUBSTRUCTURE
     1 YLI         1 TEMP              0 ****  ****    0 ROOT
