@<TRIPOS>MOLECULE
YLL
   27    27     1     0     0
SMALL
bcc


@<TRIPOS>ATOM
      1 O5           1.8890     0.2640    -0.1910 oh         1 YLL      -0.600300
      2 C7           0.6670     0.7700     0.2960 c6         1 YLL       0.123100
      3 C5           0.4060     2.1230    -0.3610 c6         1 YLL      -0.093700
      4 C6           0.3870     1.9800    -1.8810 c3         1 YLL       0.140400
      5 O6           0.0070     3.2110    -2.4560 oh         1 YLL      -0.611800
      6 C4          -0.8910     2.7430     0.1790 c6         1 YLL       0.123100
      7 O4          -2.0280     1.9810    -0.1680 oh         1 YLL      -0.600300
      8 C3          -0.8760     2.8310     1.7070 c6         1 YLL       0.092600
      9 O3           0.0380     3.8070     2.1670 oh         1 YLL      -0.589800
     10 C2          -0.6030     1.4720     2.3570 c6         1 YLL       0.091100
     11 O2          -0.6140     1.5640     3.7600 oh         1 YLL      -0.574800
     12 C1           0.6970     0.8700     1.8240 c6         1 YLL       0.092600
     13 OXT          0.9790    -0.3890     2.3950 oh         1 YLL      -0.589800
     14 H5           2.0680    -0.5610     0.2730 ho         1 YLL       0.419000
     15 H7          -0.1600     0.0930     0.0250 h1         1 YLL       0.056200
     16 HA           1.2340     2.8010    -0.1090 hc         1 YLL       0.070700
     17 H6C1        -0.3060     1.1750    -2.1630 h1         1 YLL       0.033700
     18 H6C2         1.3790     1.6730    -2.2260 h1         1 YLL       0.033700
     19 H4          -0.9820     3.7670    -0.2000 h1         1 YLL       0.056200
     20 H6           0.0130     3.1090    -3.4110 ho         1 YLL       0.411000
     21 HB          -2.2080     2.1090    -1.1050 ho         1 YLL       0.419000
     22 H3          -1.8600     3.1800     2.0350 h1         1 YLL       0.091200
     23 HC           0.9150     3.6350     1.8100 ho         1 YLL       0.405500
     24 H2          -1.4270     0.7980     2.0930 h1         1 YLL       0.090700
     25 HD          -0.0140     2.2740     4.0150 ho         1 YLL       0.414000
     26 HXT          0.2100    -0.9600     2.2830 ho         1 YLL       0.405500
     27 H1           1.5460     1.5030     2.1150 h1         1 YLL       0.091200
@<TRIPOS>BOND
     1     1     2 1   
     2     1    14 1   
     3     2     3 1   
     4     2    12 1   
     5     2    15 1   
     6     3     4 1   
     7     3     6 1   
     8     3    16 1   
     9     4     5 1   
    10     4    17 1   
    11     4    18 1   
    12     5    20 1   
    13     6     7 1   
    14     6     8 1   
    15     6    19 1   
    16     7    21 1   
    17     8     9 1   
    18     8    10 1   
    19     8    22 1   
    20     9    23 1   
    21    10    11 1   
    22    10    12 1   
    23    10    24 1   
    24    11    25 1   
    25    12    13 1   
    26    12    27 1   
    27    13    26 1   
@<TRIPOS>SUBSTRUCTURE
     1 YLL         1 TEMP              0 ****  ****    0 ROOT
