@<TRIPOS>MOLECULE
YLL
   27    27     1     0     0
SMALL
No Charge or Current Charge


@<TRIPOS>ATOM
      1 O5           1.8220     0.0070    -0.2650 oh         1 YLL      -0.722500
      2 C7           0.6160     0.6280     0.2020 c6         1 YLL       0.146300
      3 C5           0.4310     2.0520    -0.4070 c6         1 YLL      -0.093700
      4 C6           0.4390     2.0200    -1.9670 c3         1 YLL       0.163600
      5 O6           0.2340     3.3210    -2.5350 oh         1 YLL      -0.674000
      6 C4          -0.8510     2.7330     0.1790 c6         1 YLL       0.146300
      7 O4          -2.0310     2.0490    -0.2780 oh         1 YLL      -0.722500
      8 C3          -0.8330     2.7680     1.7480 c6         1 YLL       0.115800
      9 O3           0.2020     3.6430     2.2570 oh         1 YLL      -0.712000
     10 C2          -0.6230     1.3390     2.3320 c6         1 YLL       0.114300
     11 O2          -0.5250     1.4270     3.7650 oh         1 YLL      -0.697000
     12 C1           0.6700     0.6910     1.7550 c6         1 YLL       0.115800
     13 OXT          0.8570    -0.6270     2.3080 oh         1 YLL      -0.712000
     14 H5           2.0110    -0.6790     0.4220 ho         1 YLL       0.518000
     15 H7          -0.2500     0.0110    -0.0850 h1         1 YLL       0.056200
     16 HA           1.3000     2.6620    -0.1220 hc         1 YLL       0.070700
     17 H6C1        -0.3410     1.3280    -2.3140 h1         1 YLL       0.033700
     18 H6C2         1.4030     1.6180    -2.3050 h1         1 YLL       0.033700
     19 H4          -0.8820     3.7770    -0.1710 h1         1 YLL       0.056200
     20 H6           0.3560     3.2320    -3.5070 ho         1 YLL       0.450000
     21 HB          -2.1770     2.3360    -1.2100 ho         1 YLL       0.518000
     22 H3          -1.8200     3.1260     2.0820 h1         1 YLL       0.091200
     23 HC          -0.0040     4.5570     1.9460 ho         1 YLL       0.504500
     24 H2          -1.4850     0.7150     2.0440 h1         1 YLL       0.090700
     25 HD          -0.1100     2.3120     3.9170 ho         1 YLL       0.513000
     26 HXT          0.5380    -0.5580     3.2400 ho         1 YLL       0.504500
     27 H1           1.5200     1.3350     2.0350 h1         1 YLL       0.091200
@<TRIPOS>BOND
     1     1     2 1   
     2     1    14 1   
     3     2     3 1   
     4     2    12 1   
     5     2    15 1   
     6     3     4 1   
     7     3     6 1   
     8     3    16 1   
     9     4     5 1   
    10     4    17 1   
    11     4    18 1   
    12     5    20 1   
    13     6     7 1   
    14     6     8 1   
    15     6    19 1   
    16     7    21 1   
    17     8     9 1   
    18     8    10 1   
    19     8    22 1   
    20     9    23 1   
    21    10    11 1   
    22    10    12 1   
    23    10    24 1   
    24    11    25 1   
    25    12    13 1   
    26    12    27 1   
    27    13    26 1   
@<TRIPOS>SUBSTRUCTURE
     1 YLL         1 TEMP              0 ****  ****    0 ROOT
