@<TRIPOS>MOLECULE
YLO
   53    56     1     0     0
SMALL
No Charge or Current Charge


@<TRIPOS>ATOM
      1 C01          6.9230     4.8220    -1.4800 c3         1 YLO      -0.040800
      2 C02          6.0410     3.7680    -0.8270 ca         1 YLO      -0.108300
      3 C03          6.0230     3.6280     0.5740 ca         1 YLO      -0.075000
      4 C04          5.2090     2.6520     1.1750 ca         1 YLO      -0.164500
      5 C05          4.4100     1.8080     0.3890 ca         1 YLO       0.135100
      6 C06          4.4280     1.9450    -1.0170 ca         1 YLO      -0.164500
      7 C07          5.2420     2.9220    -1.6180 ca         1 YLO      -0.075000
      8 O08          3.6320     0.8700     1.0350 os         1 YLO      -0.350100
      9 C09          2.7780    -0.0410     0.3210 c3         1 YLO       0.139600
     10 C10          2.0690    -0.9320     1.3550 c3         1 YLO       0.076600
     11 N11          1.1610    -1.9120     0.7330 na         1 YLO      -0.174600
     12 C12          1.5100    -3.1430     0.2430 ca         1 YLO      -0.074200
     13 C13          2.7510    -3.7970     0.2730 ca         1 YLO      -0.114000
     14 C14          2.8360    -5.0760    -0.3120 ca         1 YLO      -0.093000
     15 C15          1.6960    -5.6650    -0.9060 ca         1 YLO      -0.132000
     16 C16          0.4630    -4.9770    -0.9200 ca         1 YLO      -0.050000
     17 C17          0.3950    -3.7040    -0.3340 ca         1 YLO       0.077400
     18 N18         -0.7140    -2.8710    -0.2550 nc         1 YLO      -0.582100
     19 C19         -0.1920    -1.8150     0.3880 cd         1 YLO       0.438700
     20 S20         -1.0970    -0.3440     0.7630 ss         1 YLO      -0.249200
     21 C21         -2.7820    -0.7040     0.0880 c3         1 YLO       0.054600
     22 C22         -3.7280     0.4840     0.3250 c3         1 YLO       0.169600
     23 O23         -5.0130     0.1370    -0.2220 os         1 YLO      -0.344100
     24 C24         -6.0900     0.9960    -0.1720 ca         1 YLO       0.139100
     25 C25         -7.3020     0.5630    -0.7350 ca         1 YLO      -0.169500
     26 C26         -8.4350     1.3940    -0.7140 ca         1 YLO      -0.074000
     27 C27         -8.3580     2.6670    -0.1260 ca         1 YLO      -0.146000
     28 C28         -7.1500     3.1090     0.4390 ca         1 YLO      -0.074000
     29 C29         -6.0160     2.2780     0.4190 ca         1 YLO      -0.169500
     30 H011         7.9150     4.4130    -1.7090 hc         1 YLO       0.040700
     31 H012         6.4860     5.1840    -2.4180 hc         1 YLO       0.040700
     32 H013         7.0610     5.6910    -0.8260 hc         1 YLO       0.040700
     33 H03          6.6390     4.2740     1.1960 ha         1 YLO       0.112000
     34 H07          5.2510     3.0190    -2.7020 ha         1 YLO       0.112000
     35 H04          5.1990     2.5480     2.2570 ha         1 YLO       0.122000
     36 H06          3.8220     1.3080    -1.6550 ha         1 YLO       0.122000
     37 H091         2.0270     0.5060    -0.2630 h1         1 YLO       0.049700
     38 H092         3.3640    -0.6710    -0.3610 h1         1 YLO       0.049700
     39 H101         2.8190    -1.4680     1.9490 h1         1 YLO       0.079200
     40 H102         1.4940    -0.2990     2.0420 h1         1 YLO       0.079200
     41 H13          3.6250    -3.3380     0.7300 ha         1 YLO       0.120000
     42 H14          3.7830    -5.6130    -0.3070 ha         1 YLO       0.114000
     43 H15          1.7680    -6.6520    -1.3560 ha         1 YLO       0.115000
     44 H16         -0.4170    -5.4210    -1.3770 ha         1 YLO       0.129000
     45 H211        -2.7040    -0.9030    -0.9880 h1         1 YLO       0.097200
     46 H212        -3.1840    -1.5980     0.5810 h1         1 YLO       0.097200
     47 H221        -3.8050     0.6800     1.4020 h1         1 YLO       0.044700
     48 H222        -3.3230     1.3770    -0.1690 h1         1 YLO       0.044700
     49 H25         -7.3610    -0.4230    -1.1900 ha         1 YLO       0.121500
     50 H29         -5.0940     2.6440     0.8630 ha         1 YLO       0.121500
     51 H26         -9.3700     1.0520    -1.1530 ha         1 YLO       0.112500
     52 H27         -9.2340     3.3120    -0.1090 ha         1 YLO       0.115000
     53 H28         -7.0920     4.0960     0.8940 ha         1 YLO       0.112500
@<TRIPOS>BOND
     1     1     2 1   
     2     1    30 1   
     3     1    31 1   
     4     1    32 1   
     5     2     3 ar  
     6     2     7 ar  
     7     3     4 ar  
     8     3    33 1   
     9     4     5 ar  
    10     4    35 1   
    11     5     6 ar  
    12     5     8 1   
    13     6     7 ar  
    14     6    36 1   
    15     7    34 1   
    16     8     9 1   
    17     9    10 1   
    18     9    37 1   
    19     9    38 1   
    20    10    11 1   
    21    10    39 1   
    22    10    40 1   
    23    11    12 1   
    24    11    19 1   
    25    12    13 ar  
    26    12    17 ar  
    27    13    14 ar  
    28    13    41 1   
    29    14    15 ar  
    30    14    42 1   
    31    15    16 ar  
    32    15    43 1   
    33    16    17 ar  
    34    16    44 1   
    35    17    18 1   
    36    18    19 2   
    37    19    20 1   
    38    20    21 1   
    39    21    22 1   
    40    21    45 1   
    41    21    46 1   
    42    22    23 1   
    43    22    47 1   
    44    22    48 1   
    45    23    24 1   
    46    24    25 ar  
    47    24    29 ar  
    48    25    26 ar  
    49    25    49 1   
    50    26    27 ar  
    51    26    51 1   
    52    27    28 ar  
    53    27    52 1   
    54    28    29 ar  
    55    28    53 1   
    56    29    50 1   
@<TRIPOS>SUBSTRUCTURE
     1 YLO         1 TEMP              0 ****  ****    0 ROOT
