@<TRIPOS>MOLECULE
YLO
   53    56     1     0     0
SMALL
abcg2


@<TRIPOS>ATOM
      1 C01          6.8960     4.6070    -1.5450 c3         1 YLO      -0.040800
      2 C02          5.9600     3.6440    -0.8730 ca         1 YLO      -0.108300
      3 C03          5.8770     3.5640     0.5180 ca         1 YLO      -0.075000
      4 C04          5.0400     2.6580     1.1430 ca         1 YLO      -0.164500
      5 C05          4.2500     1.7950     0.3840 ca         1 YLO       0.135100
      6 C06          4.3130     1.8600    -1.0030 ca         1 YLO      -0.164500
      7 C07          5.1620     2.7790    -1.6110 ca         1 YLO      -0.075000
      8 O08          3.4580     0.9400     1.0730 os         1 YLO      -0.350100
      9 C09          2.6640     0.0290     0.3490 c3         1 YLO       0.139600
     10 C10          1.9110    -0.8080     1.3730 c3         1 YLO       0.076600
     11 N11          1.0940    -1.7990     0.7130 na         1 YLO      -0.174600
     12 C12          1.5140    -3.0350     0.2740 ca         1 YLO      -0.074200
     13 C13          2.7270    -3.7000     0.3880 ca         1 YLO      -0.114000
     14 C14          2.7970    -4.9630    -0.1780 ca         1 YLO      -0.093000
     15 C15          1.6960    -5.5340    -0.8310 ca         1 YLO      -0.132000
     16 C16          0.4910    -4.8600    -0.9400 ca         1 YLO      -0.050000
     17 C17          0.4030    -3.5890    -0.3780 ca         1 YLO       0.077400
     18 N18         -0.6530    -2.7060    -0.3440 nc         1 YLO      -0.582100
     19 C19         -0.2000    -1.6710     0.2990 cd         1 YLO       0.438700
     20 S20         -1.0820    -0.2120     0.6520 ss         1 YLO      -0.249200
     21 C21         -2.6690    -0.6140    -0.1350 c3         1 YLO       0.054600
     22 C22         -3.6520     0.4750     0.2570 c3         1 YLO       0.169600
     23 O23         -4.8580     0.1790    -0.4150 os         1 YLO      -0.344100
     24 C24         -5.9230     0.9880    -0.2190 ca         1 YLO       0.139100
     25 C25         -7.0870     0.6460    -0.9090 ca         1 YLO      -0.169500
     26 C26         -8.2270     1.4190    -0.7690 ca         1 YLO      -0.074000
     27 C27         -8.2270     2.5380     0.0580 ca         1 YLO      -0.146000
     28 C28         -7.0690     2.8720     0.7390 ca         1 YLO      -0.074000
     29 C29         -5.9130     2.1070     0.6100 ca         1 YLO      -0.169500
     30 H011         7.8780     4.1570    -1.7070 hc         1 YLO       0.040700
     31 H012         6.5190     4.9160    -2.5200 hc         1 YLO       0.040700
     32 H013         7.0490     5.5040    -0.9460 hc         1 YLO       0.040700
     33 H03          6.4790     4.2260     1.1290 ha         1 YLO       0.112000
     34 H07          5.1940     2.8140    -2.6940 ha         1 YLO       0.112000
     35 H04          4.9900     2.6160     2.2250 ha         1 YLO       0.122000
     36 H06          3.7140     1.2140    -1.6310 ha         1 YLO       0.122000
     37 H091         1.9520     0.5510    -0.3010 h1         1 YLO       0.049700
     38 H092         3.2810    -0.6200    -0.2820 h1         1 YLO       0.049700
     39 H101         2.6080    -1.3210     2.0370 h1         1 YLO       0.079200
     40 H102         1.2800    -0.1780     2.0010 h1         1 YLO       0.079200
     41 H13          3.5810    -3.2610     0.8880 ha         1 YLO       0.120000
     42 H14          3.7230    -5.5190    -0.1170 ha         1 YLO       0.114000
     43 H15          1.7950    -6.5220    -1.2600 ha         1 YLO       0.115000
     44 H16         -0.3560    -5.3030    -1.4480 ha         1 YLO       0.129000
     45 H211        -2.5320    -0.6520    -1.2140 h1         1 YLO       0.097200
     46 H212        -3.0050    -1.5870     0.2200 h1         1 YLO       0.097200
     47 H221        -3.7980     0.4780     1.3420 h1         1 YLO       0.044700
     48 H222        -3.2770     1.4620    -0.0360 h1         1 YLO       0.044700
     49 H25         -7.0880    -0.2250    -1.5520 ha         1 YLO       0.121500
     50 H29         -5.0290     2.3990     1.1590 ha         1 YLO       0.121500
     51 H26         -9.1230     1.1430    -1.3110 ha         1 YLO       0.112500
     52 H27         -9.1200     3.1390     0.1660 ha         1 YLO       0.115000
     53 H28         -7.0510     3.7400     1.3860 ha         1 YLO       0.112500
@<TRIPOS>BOND
     1     1     2 1   
     2     1    30 1   
     3     1    31 1   
     4     1    32 1   
     5     2     3 ar  
     6     2     7 ar  
     7     3     4 ar  
     8     3    33 1   
     9     4     5 ar  
    10     4    35 1   
    11     5     6 ar  
    12     5     8 1   
    13     6     7 ar  
    14     6    36 1   
    15     7    34 1   
    16     8     9 1   
    17     9    10 1   
    18     9    37 1   
    19     9    38 1   
    20    10    11 1   
    21    10    39 1   
    22    10    40 1   
    23    11    12 1   
    24    11    19 1   
    25    12    13 ar  
    26    12    17 ar  
    27    13    14 ar  
    28    13    41 1   
    29    14    15 ar  
    30    14    42 1   
    31    15    16 ar  
    32    15    43 1   
    33    16    17 ar  
    34    16    44 1   
    35    17    18 1   
    36    18    19 2   
    37    19    20 1   
    38    20    21 1   
    39    21    22 1   
    40    21    45 1   
    41    21    46 1   
    42    22    23 1   
    43    22    47 1   
    44    22    48 1   
    45    23    24 1   
    46    24    25 ar  
    47    24    29 ar  
    48    25    26 ar  
    49    25    49 1   
    50    26    27 ar  
    51    26    51 1   
    52    27    28 ar  
    53    27    52 1   
    54    28    29 ar  
    55    28    53 1   
    56    29    50 1   
@<TRIPOS>SUBSTRUCTURE
     1 YLO         1 TEMP              0 ****  ****    0 ROOT
