@<TRIPOS>MOLECULE
YLQ
   44    46     1     0     0
SMALL
abcg2


@<TRIPOS>ATOM
      1 C01          7.3910     2.1340     1.4890 c3         1 YLQ      -0.036800
      2 C02          6.1450     1.6020     0.8400 ca         1 YLQ      -0.119300
      3 C03          6.0090     1.5690    -0.5480 ca         1 YLQ      -0.075500
      4 C04          4.8550     1.1030    -1.1530 ca         1 YLQ      -0.166500
      5 C05          3.7920     0.6490    -0.3740 ca         1 YLQ       0.147100
      6 O06          2.7040     0.2050    -1.0440 os         1 YLQ      -0.350100
      7 C07          1.6140    -0.3020    -0.3090 c3         1 YLQ       0.135600
      8 C08          0.5950    -0.7930    -1.3270 c3         1 YLQ       0.081600
      9 N09         -0.5600    -1.3530    -0.6670 na         1 YLQ      -0.185600
     10 C10         -1.6920    -0.6940    -0.2770 cc         1 YLQ       0.463700
     11 S11         -1.8860     0.9950    -0.6430 ss         1 YLQ      -0.337200
     12 C12         -3.5860     1.2850    -0.0540 c3         1 YLQ       0.134600
     13 C13         -3.9420     2.7280    -0.3600 c3         1 YLQ      -0.220400
     14 C14         -5.3680     3.1150     0.0870 c          1 YLQ       0.727000
     15 O15         -6.0300     2.2550     0.6970 o          1 YLQ      -0.725000
     16 O16         -5.7280     4.2720    -0.2050 o          1 YLQ      -0.725000
     17 N17         -2.5430    -1.4480     0.3580 nd         1 YLQ      -0.576100
     18 C18         -1.9470    -2.6880     0.4110 ca         1 YLQ       0.087400
     19 C19         -2.4010    -3.8770     0.9750 ca         1 YLQ      -0.054000
     20 C20         -1.5830    -4.9920     0.8860 ca         1 YLQ      -0.143000
     21 C21         -0.3360    -4.9330     0.2490 ca         1 YLQ      -0.113000
     22 C22          0.1330    -3.7580    -0.3170 ca         1 YLQ      -0.118000
     23 C23         -0.6950    -2.6480    -0.2220 ca         1 YLQ      -0.086200
     24 C24          3.9050     0.6730     1.0120 ca         1 YLQ      -0.166500
     25 C25          5.0740     1.1450     1.5990 ca         1 YLQ      -0.075500
     26 H011         7.2580     3.1670     1.8170 hc         1 YLQ       0.036367
     27 H012         7.6660     1.5520     2.3690 hc         1 YLQ       0.036367
     28 H013         8.2360     2.1180     0.8010 hc         1 YLQ       0.036367
     29 H03          6.8260     1.9110    -1.1730 ha         1 YLQ       0.107500
     30 H25          5.1440     1.1510     2.6810 ha         1 YLQ       0.107500
     31 H04          4.7730     1.0820    -2.2320 ha         1 YLQ       0.124000
     32 H24          3.1030     0.3270     1.6510 ha         1 YLQ       0.124000
     33 H071         1.9220    -1.1310     0.3380 h1         1 YLQ       0.051700
     34 H072         1.1680     0.4720     0.3270 h1         1 YLQ       0.051700
     35 H081         0.2770     0.0220    -1.9790 h1         1 YLQ       0.076200
     36 H082         1.0350    -1.5580    -1.9670 h1         1 YLQ       0.076200
     37 H121        -4.2480     0.5900    -0.5670 h1         1 YLQ       0.081200
     38 H122        -3.6250     1.0770     1.0140 h1         1 YLQ       0.081200
     39 H131        -3.2340     3.4050     0.1290 hc         1 YLQ       0.032700
     40 H132        -3.8480     2.9220    -1.4330 hc         1 YLQ       0.032700
     41 H19         -3.3640    -3.9250     1.4680 ha         1 YLQ       0.128000
     42 H20         -1.9110    -5.9290     1.3170 ha         1 YLQ       0.103000
     43 H21          0.2750    -5.8250     0.1970 ha         1 YLQ       0.100000
     44 H22          1.0970    -3.7210    -0.8080 ha         1 YLQ       0.110000
@<TRIPOS>BOND
     1     1     2 1   
     2     1    26 1   
     3     1    27 1   
     4     1    28 1   
     5     2     3 ar  
     6     2    25 ar  
     7     3     4 ar  
     8     3    29 1   
     9     4     5 ar  
    10     4    31 1   
    11     5     6 1   
    12     5    24 ar  
    13     6     7 1   
    14     7     8 1   
    15     7    33 1   
    16     7    34 1   
    17     8     9 1   
    18     8    35 1   
    19     8    36 1   
    20     9    10 1   
    21     9    23 1   
    22    10    11 1   
    23    10    17 2   
    24    11    12 1   
    25    12    13 1   
    26    12    37 1   
    27    12    38 1   
    28    13    14 1   
    29    13    39 1   
    30    13    40 1   
    31    14    15 1   
    32    14    16 1   
    33    17    18 1   
    34    18    19 ar  
    35    18    23 ar  
    36    19    20 ar  
    37    19    41 1   
    38    20    21 ar  
    39    20    42 1   
    40    21    22 ar  
    41    21    43 1   
    42    22    23 ar  
    43    22    44 1   
    44    24    25 ar  
    45    24    32 1   
    46    25    30 1   
@<TRIPOS>SUBSTRUCTURE
     1 YLQ         1 TEMP              0 ****  ****    0 ROOT
