@<TRIPOS>MOLECULE
YLQ
   44    46     1     0     0
SMALL
No Charge or Current Charge


@<TRIPOS>ATOM
      1 C01          7.5290     2.1820     1.5220 c3         1 YLQ      -0.036800
      2 C02          6.2740     1.6270     0.8640 ca         1 YLQ      -0.119300
      3 C03          6.1840     1.5490    -0.5380 ca         1 YLQ      -0.075500
      4 C04          5.0230     1.0390    -1.1440 ca         1 YLQ      -0.166500
      5 C05          3.9420     0.6060    -0.3600 ca         1 YLQ       0.147100
      6 O06          2.8290     0.1150    -1.0110 os         1 YLQ      -0.350100
      7 C07          1.6700    -0.3540    -0.2990 c3         1 YLQ       0.135600
      8 C08          0.6370    -0.8240    -1.3370 c3         1 YLQ       0.081600
      9 N09         -0.6000    -1.3340    -0.7170 na         1 YLQ      -0.185600
     10 C10         -1.7790    -0.6680    -0.4000 cc         1 YLQ       0.463700
     11 S11         -1.9930     1.0450    -0.7310 ss         1 YLQ      -0.337200
     12 C12         -3.6960     1.3520    -0.0800 c3         1 YLQ       0.134600
     13 C13         -4.0830     2.8280    -0.2810 c3         1 YLQ      -0.220400
     14 C14         -5.4930     3.0380     0.2690 c          1 YLQ       0.727000
     15 O15         -5.6120     3.3260     1.4500 o          1 YLQ      -0.725000
     16 O16         -6.4370     2.8460    -0.4820 o          1 YLQ      -0.725000
     17 N17         -2.6920    -1.4440     0.2030 nd         1 YLQ      -0.576100
     18 C18         -2.0350    -2.6750     0.2630 ca         1 YLQ       0.087400
     19 C19         -2.5190    -3.8750     0.8050 ca         1 YLQ      -0.054000
     20 C20         -1.6840    -5.0140     0.7740 ca         1 YLQ      -0.143000
     21 C21         -0.3890    -4.9390     0.2090 ca         1 YLQ      -0.113000
     22 C22          0.0840    -3.7250    -0.3310 ca         1 YLQ      -0.118000
     23 C23         -0.7740    -2.6170    -0.2850 ca         1 YLQ      -0.086200
     24 C24          4.0290     0.6860     1.0470 ca         1 YLQ      -0.166500
     25 C25          5.1910     1.1960     1.6530 ca         1 YLQ      -0.075500
     26 H011         7.4470     3.2660     1.6660 hc         1 YLQ       0.036367
     27 H012         7.7010     1.7260     2.5050 hc         1 YLQ       0.036367
     28 H013         8.4190     1.9910     0.9110 hc         1 YLQ       0.036367
     29 H03          7.0130     1.8830    -1.1590 ha         1 YLQ       0.107500
     30 H25          5.2490     1.2560     2.7380 ha         1 YLQ       0.107500
     31 H04          4.9590     0.9800    -2.2270 ha         1 YLQ       0.124000
     32 H24          3.2110     0.3600     1.6830 ha         1 YLQ       0.124000
     33 H071         1.9300    -1.1930     0.3600 h1         1 YLQ       0.051700
     34 H072         1.2340     0.4500     0.3090 h1         1 YLQ       0.051700
     35 H081         0.3850     0.0140    -1.9990 h1         1 YLQ       0.076200
     36 H082         1.0780    -1.6130    -1.9580 h1         1 YLQ       0.076200
     37 H121        -4.4070     0.7030    -0.6080 h1         1 YLQ       0.081200
     38 H122        -3.7240     1.1000     0.9890 h1         1 YLQ       0.081200
     39 H131        -3.3510     3.4140     0.2870 hc         1 YLQ       0.032700
     40 H132        -4.0550     3.0050    -1.3630 hc         1 YLQ       0.032700
     41 H19         -3.5150    -3.9230     1.2390 ha         1 YLQ       0.128000
     42 H20         -2.0400    -5.9540     1.1880 ha         1 YLQ       0.103000
     43 H21          0.2470    -5.8220     0.1920 ha         1 YLQ       0.100000
     44 H22          1.0790    -3.6600    -0.7650 ha         1 YLQ       0.110000
@<TRIPOS>BOND
     1     1     2 1   
     2     1    26 1   
     3     1    27 1   
     4     1    28 1   
     5     2     3 ar  
     6     2    25 ar  
     7     3     4 ar  
     8     3    29 1   
     9     4     5 ar  
    10     4    31 1   
    11     5     6 1   
    12     5    24 ar  
    13     6     7 1   
    14     7     8 1   
    15     7    33 1   
    16     7    34 1   
    17     8     9 1   
    18     8    35 1   
    19     8    36 1   
    20     9    10 1   
    21     9    23 1   
    22    10    11 1   
    23    10    17 2   
    24    11    12 1   
    25    12    13 1   
    26    12    37 1   
    27    12    38 1   
    28    13    14 1   
    29    13    39 1   
    30    13    40 1   
    31    14    15 1   
    32    14    16 1   
    33    17    18 1   
    34    18    19 ar  
    35    18    23 ar  
    36    19    20 ar  
    37    19    41 1   
    38    20    21 ar  
    39    20    42 1   
    40    21    22 ar  
    41    21    43 1   
    42    22    23 ar  
    43    22    44 1   
    44    24    25 ar  
    45    24    32 1   
    46    25    30 1   
@<TRIPOS>SUBSTRUCTURE
     1 YLQ         1 TEMP              0 ****  ****    0 ROOT
