@<TRIPOS>MOLECULE
YLR
   47    51     1     0     0
SMALL
No Charge or Current Charge


@<TRIPOS>ATOM
      1 C4         131.0810   154.0530   132.5090 c5         1 YLR       0.019800
      2 C5         130.9590   154.0180   130.9420 c5         1 YLR      -0.066700
      3 C6         132.1350   153.3360   130.1950 c6         1 YLR       0.271800
      4 C11        134.1500   154.9180   134.6690 ca         1 YLR      -0.334500
      5 C8         133.6100   154.2750   131.9910 ca         1 YLR       0.366000
      6 C9         132.5390   154.3430   132.9120 ca         1 YLR      -0.159300
      7 C10        132.8290   154.6560   134.2560 ca         1 YLR       0.045000
      8 C12        135.2020   154.8600   133.7370 ca         1 YLR       0.026000
      9 C3         130.2200   155.2450   132.8800 c2         1 YLR      -0.227200
     10 C1         130.6570   155.5150   130.5820 c5         1 YLR      -0.043200
     11 C2         129.9890   156.0380   131.8340 c2         1 YLR      -0.214200
     12 C18        131.9630   153.4000   128.6570 ca         1 YLR      -0.087300
     13 C19        132.5370   154.4760   127.9380 ca         1 YLR      -0.094000
     14 C26        130.5760   151.3310   128.5880 ca         1 YLR      -0.109000
     15 C27        131.2180   152.4170   127.9400 ca         1 YLR      -0.022000
     16 C20        132.4070   154.5690   126.5460 ca         1 YLR      -0.111000
     17 C21        131.6950   153.5920   125.8420 ca         1 YLR      -0.091000
     18 C25        129.8530   150.3780   127.8510 ca         1 YLR      -0.101000
     19 C22        131.0970   152.5230   126.5300 ca         1 YLR      -0.039000
     20 C23        130.3720   151.5620   125.7990 ca         1 YLR      -0.096000
     21 C24        129.7520   150.4900   126.4580 ca         1 YLR      -0.107000
     22 C13        134.9240   154.5360   132.4010 ca         1 YLR      -0.210000
     23 N17        134.2460   156.9340   136.3840 n8         1 YLR      -0.995100
     24 N7         133.3860   153.9420   130.6600 nu         1 YLR      -0.930200
     25 O15        133.4370   154.7750   137.2490 o          1 YLR      -0.550500
     26 O16        135.9080   155.1720   136.6610 o          1 YLR      -0.550500
     27 S14        134.4820   155.3180   136.3800 sy         1 YLR       1.130600
     28 H1         130.7100   153.1250   132.9590 hc         1 YLR       0.066700
     29 H5         130.0790   153.4210   130.6770 hc         1 YLR       0.063700
     30 H6         132.1670   152.2840   130.5090 h1         1 YLR       0.047700
     31 H10        132.0170   154.6970   134.9810 ha         1 YLR       0.131000
     32 H12        136.2300   155.0570   134.0380 ha         1 YLR       0.135000
     33 H3         129.8240   155.4350   133.8800 ha         1 YLR       0.191000
     34 H1B        131.5680   156.0880   130.3710 hc         1 YLR       0.060200
     35 H1A        130.0070   155.5970   129.7040 hc         1 YLR       0.060200
     36 H2         129.3890   156.9500   131.8820 ha         1 YLR       0.188000
     37 H19        133.0870   155.2570   128.4590 ha         1 YLR       0.123000
     38 H14        130.6150   151.2040   129.6650 ha         1 YLR       0.113000
     39 H20        132.8600   155.4020   126.0120 ha         1 YLR       0.116000
     40 H21        131.6000   153.6730   124.7610 ha         1 YLR       0.116000
     41 H28        129.3680   149.5510   128.3640 ha         1 YLR       0.115000
     42 H23        130.2840   151.6470   124.7180 ha         1 YLR       0.114000
     43 H25        129.1920   149.7510   125.8900 ha         1 YLR       0.116000
     44 H13        135.7380   154.4840   131.6840 ha         1 YLR       0.116000
     45 H15        135.1230   157.2550   136.7860 hn         1 YLR       0.467500
     46 H16        134.3300   157.1640   135.3970 hn         1 YLR       0.467500
     47 H7         134.2160   153.8350   130.0790 hn         1 YLR       0.472000
@<TRIPOS>BOND
     1     1     2 1   
     2     1     6 1   
     3     1     9 1   
     4     1    28 1   
     5     2     3 1   
     6     2    10 1   
     7     2    29 1   
     8     3    12 1   
     9     3    24 1   
    10     3    30 1   
    11     4     7 ar  
    12     4     8 ar  
    13     4    27 1   
    14     5     6 ar  
    15     5    22 ar  
    16     5    24 1   
    17     6     7 ar  
    18     7    31 1   
    19     8    22 ar  
    20     8    32 1   
    21     9    11 2   
    22     9    33 1   
    23    10    11 1   
    24    10    34 1   
    25    10    35 1   
    26    11    36 1   
    27    12    13 ar  
    28    12    15 ar  
    29    13    16 ar  
    30    13    37 1   
    31    14    15 ar  
    32    14    18 ar  
    33    14    38 1   
    34    15    19 ar  
    35    16    17 ar  
    36    16    39 1   
    37    17    19 ar  
    38    17    40 1   
    39    18    21 ar  
    40    18    41 1   
    41    19    20 ar  
    42    20    21 ar  
    43    20    42 1   
    44    21    43 1   
    45    22    44 1   
    46    23    27 1   
    47    23    45 1   
    48    23    46 1   
    49    24    47 1   
    50    25    27 2   
    51    26    27 2   
@<TRIPOS>SUBSTRUCTURE
     1 YLR         1 TEMP              0 ****  ****    0 ROOT
