@<TRIPOS>MOLECULE
YLR
   47    51     1     0     0
SMALL
abcg2


@<TRIPOS>ATOM
      1 C4         131.1640   154.1720   132.3880 c5         1 YLR       0.019800
      2 C5         130.9920   154.0850   130.8570 c5         1 YLR      -0.066700
      3 C6         132.2040   153.4680   130.1610 c6         1 YLR       0.271800
      4 C11        134.2020   154.8280   134.5700 ca         1 YLR      -0.334500
      5 C8         133.6450   154.4000   131.8760 ca         1 YLR       0.366000
      6 C9         132.5990   154.3810   132.8180 ca         1 YLR      -0.159300
      7 C10        132.8980   154.5870   134.1530 ca         1 YLR       0.045000
      8 C12        135.2370   154.8650   133.6430 ca         1 YLR       0.026000
      9 C3         130.3230   155.3800   132.7290 c2         1 YLR      -0.227200
     10 C1         130.6160   155.5050   130.4050 c5         1 YLR      -0.043200
     11 C2         130.0380   156.1040   131.6530 c2         1 YLR      -0.214200
     12 C18        132.0280   153.4690   128.6600 ca         1 YLR      -0.087300
     13 C19        132.5730   154.4640   127.8880 ca         1 YLR      -0.094000
     14 C26        130.6400   151.3860   128.7430 ca         1 YLR      -0.109000
     15 C27        131.2440   152.4540   128.0320 ca         1 YLR      -0.022000
     16 C20        132.3810   154.5070   126.4930 ca         1 YLR      -0.111000
     17 C21        131.6350   153.5480   125.8710 ca         1 YLR      -0.091000
     18 C25        129.8920   150.4360   128.1020 ca         1 YLR      -0.101000
     19 C22        131.0490   152.5040   126.6230 ca         1 YLR      -0.039000
     20 C23        130.2730   151.5060   125.9880 ca         1 YLR      -0.096000
     21 C24        129.7030   150.4930   126.7080 ca         1 YLR      -0.107000
     22 C13        134.9560   154.6480   132.3110 ca         1 YLR      -0.210000
     23 N17        133.9590   156.6410   136.4760 n8         1 YLR      -0.995100
     24 N7         133.3970   154.1930   130.5470 nu         1 YLR      -0.930200
     25 O15        133.6630   154.2540   137.0940 o          1 YLR      -0.550500
     26 O16        135.9670   154.9950   136.4810 o          1 YLR      -0.550500
     27 S14        134.5270   155.0940   136.2740 sy         1 YLR       1.130600
     28 H1         130.7850   153.2660   132.8710 hc         1 YLR       0.066700
     29 H5         130.1330   153.4380   130.6660 hc         1 YLR       0.063700
     30 H6         132.2900   152.4290   130.5050 h1         1 YLR       0.047700
     31 H10        132.0930   154.5610   134.8790 ha         1 YLR       0.131000
     32 H12        136.2570   155.0490   133.9500 ha         1 YLR       0.135000
     33 H3         130.0500   155.6290   133.7470 ha         1 YLR       0.191000
     34 H1B        131.4840   156.0830   130.0710 hc         1 YLR       0.060200
     35 H1A        129.9150   155.4940   129.5680 hc         1 YLR       0.060200
     36 H2         129.4900   157.0370   131.6610 ha         1 YLR       0.188000
     37 H19        133.1630   155.2430   128.3530 ha         1 YLR       0.123000
     38 H14        130.7660   151.3040   129.8140 ha         1 YLR       0.113000
     39 H20        132.8300   155.3080   125.9210 ha         1 YLR       0.116000
     40 H21        131.4820   153.5740   124.7990 ha         1 YLR       0.116000
     41 H28        129.4440   149.6320   128.6710 ha         1 YLR       0.115000
     42 H23        130.1370   151.5590   124.9150 ha         1 YLR       0.114000
     43 H25        129.1100   149.7360   126.2120 ha         1 YLR       0.116000
     44 H13        135.7610   154.6620   131.5860 ha         1 YLR       0.116000
     45 H15        133.8720   156.8750   137.4620 hn         1 YLR       0.467500
     46 H16        134.5440   157.3280   136.0100 hn         1 YLR       0.467500
     47 H7         134.2170   153.9750   130.0000 hn         1 YLR       0.472000
@<TRIPOS>BOND
     1     1     2 1   
     2     1     6 1   
     3     1     9 1   
     4     1    28 1   
     5     2     3 1   
     6     2    10 1   
     7     2    29 1   
     8     3    12 1   
     9     3    24 1   
    10     3    30 1   
    11     4     7 ar  
    12     4     8 ar  
    13     4    27 1   
    14     5     6 ar  
    15     5    22 ar  
    16     5    24 1   
    17     6     7 ar  
    18     7    31 1   
    19     8    22 ar  
    20     8    32 1   
    21     9    11 2   
    22     9    33 1   
    23    10    11 1   
    24    10    34 1   
    25    10    35 1   
    26    11    36 1   
    27    12    13 ar  
    28    12    15 ar  
    29    13    16 ar  
    30    13    37 1   
    31    14    15 ar  
    32    14    18 ar  
    33    14    38 1   
    34    15    19 ar  
    35    16    17 ar  
    36    16    39 1   
    37    17    19 ar  
    38    17    40 1   
    39    18    21 ar  
    40    18    41 1   
    41    19    20 ar  
    42    20    21 ar  
    43    20    42 1   
    44    21    43 1   
    45    22    44 1   
    46    23    27 1   
    47    23    45 1   
    48    23    46 1   
    49    24    47 1   
    50    25    27 2   
    51    26    27 2   
@<TRIPOS>SUBSTRUCTURE
     1 YLR         1 TEMP              0 ****  ****    0 ROOT
