@<TRIPOS>MOLECULE
YLX
   59    62     1     0     0
SMALL
No Charge or Current Charge


@<TRIPOS>ATOM
      1 C1         137.6660   128.0700   166.2460 c6         1 YLX      -0.154400
      2 C2         138.5420   128.3040   167.5150 c5         1 YLX      -0.048000
      3 C3         139.8950   127.5380   167.4990 c5         1 YLX      -0.075900
      4 C4         140.7520   128.3480   166.4800 c5         1 YLX      -0.079400
      5 N          135.7450   129.0980   167.5120 n          1 YLX      -0.385400
      6 C          136.3600   128.8720   166.2650 c          1 YLX       0.575500
      7 O          135.9510   129.4000   165.2390 o          1 YLX      -0.521500
      8 C10        134.6380   131.4000   167.4710 c3         1 YLX      -0.089400
      9 C11        135.4350   132.0180   168.6460 c3         1 YLX      -0.069400
     10 C12        135.5910   133.5560   168.5610 c3         1 YLX       0.170800
     11 C13        136.2600   135.5300   167.1950 c6         1 YLX       0.151800
     12 C14        136.7200   135.9650   165.7660 c6         1 YLX       0.217800
     13 C15        138.6390   135.7210   164.1010 ca         1 YLX       0.386900
     14 C16        138.5610   136.9510   162.1560 ca         1 YLX       0.153400
     15 C17        139.8520   136.5090   161.8290 ca         1 YLX      -0.293000
     16 C18        140.4870   135.6410   162.7300 ca         1 YLX       0.153400
     17 C19        138.6420   134.3790   166.2870 c6         1 YLX       0.217800
     18 C20        137.6510   133.4930   167.1270 c6         1 YLX       0.151800
     19 C5         140.2050   129.8090   166.5690 c5         1 YLX      -0.079400
     20 C6         139.1060   129.7470   167.6680 c5         1 YLX      -0.075900
     21 C7         137.6150   127.8770   168.6830 c6         1 YLX      -0.154400
     22 C8         136.3100   128.6830   168.7360 c          1 YLX       0.575500
     23 C9         134.4640   129.8620   167.5350 c3         1 YLX       0.091000
     24 N1         136.2700   134.0490   167.3370 n3         1 YLX      -0.730600
     25 N2         137.9930   135.3100   165.2960 nh         1 YLX      -0.780300
     26 N3         137.9530   136.5590   163.2910 nb         1 YLX      -0.250000
     27 N4         139.8830   135.2460   163.8670 nb         1 YLX      -0.250000
     28 O1         135.8610   129.0450   169.8150 o          1 YLX      -0.521500
     29 H1         138.1940   128.2600   165.3030 hc         1 YLX       0.078700
     30 H2         137.3730   127.0110   166.2390 hc         1 YLX       0.078700
     31 H3         139.7830   126.4880   167.2020 hc         1 YLX       0.050200
     32 H4         140.3660   127.5370   168.4890 hc         1 YLX       0.050200
     33 H5         140.6430   127.9520   165.4640 hc         1 YLX       0.046200
     34 H6         141.8200   128.2940   166.7240 hc         1 YLX       0.046200
     35 H7         133.6420   131.8600   167.4400 hc         1 YLX       0.057200
     36 H8         135.1260   131.6610   166.5250 hc         1 YLX       0.057200
     37 H9         136.4290   131.5610   168.7030 hc         1 YLX       0.043200
     38 H10        134.9270   131.7750   169.5870 hc         1 YLX       0.043200
     39 H11        136.1410   133.8960   169.4490 h1         1 YLX       0.031700
     40 H12        134.5870   133.9970   168.6210 h1         1 YLX       0.031700
     41 H13        136.9210   135.9910   167.9440 h1         1 YLX       0.049700
     42 H14        135.2500   135.9300   167.3690 h1         1 YLX       0.049700
     43 H15        135.9090   135.7210   165.0650 h1         1 YLX       0.061700
     44 H16        136.8300   137.0600   165.7630 h1         1 YLX       0.061700
     45 H17        138.0080   137.6250   161.5040 h4         1 YLX       0.018100
     46 H18        140.3410   136.8260   160.9130 ha         1 YLX       0.134000
     47 H19        141.4890   135.2580   162.5420 h4         1 YLX       0.018100
     48 H20        139.3470   133.6940   165.7940 h1         1 YLX       0.061700
     49 H21        139.2370   134.9790   166.9920 h1         1 YLX       0.061700
     50 H22        138.1350   133.2890   168.0940 h1         1 YLX       0.049700
     51 H23        137.5590   132.5220   166.6200 h1         1 YLX       0.049700
     52 H24        139.7860   130.1290   165.6080 hc         1 YLX       0.046200
     53 H25        140.9900   130.5300   166.8250 hc         1 YLX       0.046200
     54 H26        139.5390   129.9050   168.6630 hc         1 YLX       0.050200
     55 H27        138.3450   130.5210   167.5300 hc         1 YLX       0.050200
     56 H28        137.3270   126.8310   168.5160 hc         1 YLX       0.078700
     57 H29        138.1150   127.9250   169.6590 hc         1 YLX       0.078700
     58 H30        133.8930   129.6050   168.4370 h1         1 YLX       0.067200
     59 H31        133.8470   129.5430   166.6850 h1         1 YLX       0.067200
@<TRIPOS>BOND
     1     1     2 1   
     2     1     6 1   
     3     1    29 1   
     4     1    30 1   
     5     2     3 1   
     6     2    20 1   
     7     2    21 1   
     8     3     4 1   
     9     3    31 1   
    10     3    32 1   
    11     4    19 1   
    12     4    33 1   
    13     4    34 1   
    14     5     6 1   
    15     5    22 1   
    16     5    23 1   
    17     6     7 2   
    18     8     9 1   
    19     8    23 1   
    20     8    35 1   
    21     8    36 1   
    22     9    10 1   
    23     9    37 1   
    24     9    38 1   
    25    10    24 1   
    26    10    39 1   
    27    10    40 1   
    28    11    12 1   
    29    11    24 1   
    30    11    41 1   
    31    11    42 1   
    32    12    25 1   
    33    12    43 1   
    34    12    44 1   
    35    13    25 1   
    36    13    26 ar  
    37    13    27 ar  
    38    14    15 ar  
    39    14    26 ar  
    40    14    45 1   
    41    15    16 ar  
    42    15    46 1   
    43    16    27 ar  
    44    16    47 1   
    45    17    18 1   
    46    17    25 1   
    47    17    48 1   
    48    17    49 1   
    49    18    24 1   
    50    18    50 1   
    51    18    51 1   
    52    19    20 1   
    53    19    52 1   
    54    19    53 1   
    55    20    54 1   
    56    20    55 1   
    57    21    22 1   
    58    21    56 1   
    59    21    57 1   
    60    22    28 2   
    61    23    58 1   
    62    23    59 1   
@<TRIPOS>SUBSTRUCTURE
     1 YLX         1 TEMP              0 ****  ****    0 ROOT
