@<TRIPOS>MOLECULE
YLX
   59    62     1     0     0
SMALL
abcg2


@<TRIPOS>ATOM
      1 C1         137.0730   127.7530   166.7630 c6         1 YLX      -0.154400
      2 C2         138.3470   128.2420   167.4390 c5         1 YLX      -0.048000
      3 C3         139.5500   127.3850   167.0400 c5         1 YLX      -0.075900
      4 C4         139.9510   127.8840   165.6460 c5         1 YLX      -0.079400
      5 N          135.8440   129.1430   168.4090 n          1 YLX      -0.385400
      6 C          135.8560   128.5450   167.1550 c          1 YLX       0.575500
      7 O          134.9000   128.6520   166.4180 o          1 YLX      -0.521500
      8 C10        134.7330   131.3590   168.1480 c3         1 YLX      -0.089400
      9 C11        135.8010   132.2680   168.7420 c3         1 YLX      -0.069400
     10 C12        135.8750   133.6160   168.0350 c3         1 YLX       0.170800
     11 C13        135.9380   134.6330   165.8540 c6         1 YLX       0.151800
     12 C14        136.8390   134.8420   164.6520 c6         1 YLX       0.217800
     13 C15        138.9450   136.0780   164.4400 ca         1 YLX       0.386900
     14 C16        139.2730   137.3880   162.6190 ca         1 YLX       0.153400
     15 C17        140.4840   137.8370   163.1220 ca         1 YLX      -0.293000
     16 C18        140.8450   137.3120   164.3530 ca         1 YLX       0.153400
     17 C19        138.6060   134.6110   166.3660 c6         1 YLX       0.217800
     18 C20        137.8270   133.3260   166.6010 c6         1 YLX       0.151800
     19 C5         139.4470   129.3440   165.5670 c5         1 YLX      -0.079400
     20 C6         138.7660   129.6230   166.9140 c5         1 YLX      -0.075900
     21 C7         138.0770   128.2120   168.9300 c6         1 YLX      -0.154400
     22 C8         136.8650   129.0020   169.3410 c          1 YLX       0.575500
     23 C9         134.6760   129.9600   168.7510 c3         1 YLX       0.091000
     24 N1         136.3840   133.5180   166.6770 n3         1 YLX      -0.730600
     25 N2         138.1740   135.1950   165.1060 nh         1 YLX      -0.780300
     26 N3         138.5070   136.5170   163.2500 nb         1 YLX      -0.250000
     27 N4         140.0970   136.4500   165.0180 nb         1 YLX      -0.250000
     28 O1         136.7690   129.4860   170.4470 o          1 YLX      -0.521500
     29 H1         137.1370   127.7770   165.6740 hc         1 YLX       0.078700
     30 H2         136.8890   126.7090   167.0420 hc         1 YLX       0.078700
     31 H3         139.3320   126.3150   167.0700 hc         1 YLX       0.050200
     32 H4         140.3600   127.5670   167.7540 hc         1 YLX       0.050200
     33 H5         139.4840   127.2750   164.8710 hc         1 YLX       0.046200
     34 H6         141.0270   127.8100   165.4920 hc         1 YLX       0.046200
     35 H7         133.7510   131.8170   168.3040 hc         1 YLX       0.057200
     36 H8         134.8670   131.2920   167.0660 hc         1 YLX       0.057200
     37 H9         136.7820   131.7850   168.7130 hc         1 YLX       0.043200
     38 H10        135.5870   132.4430   169.8000 hc         1 YLX       0.043200
     39 H11        136.4650   134.3240   168.6390 h1         1 YLX       0.031700
     40 H12        134.8660   134.0350   167.9820 h1         1 YLX       0.031700
     41 H13        135.9140   135.5780   166.4200 h1         1 YLX       0.049700
     42 H14        134.9170   134.4530   165.5060 h1         1 YLX       0.049700
     43 H15        136.8560   133.9440   164.0240 h1         1 YLX       0.061700
     44 H16        136.4360   135.6490   164.0450 h1         1 YLX       0.061700
     45 H17        138.9070   137.7410   161.6600 h4         1 YLX       0.018100
     46 H18        141.1030   138.5460   162.5930 ha         1 YLX       0.134000
     47 H19        141.7770   137.6040   164.8270 h4         1 YLX       0.018100
     48 H20        139.6710   134.3870   166.3250 h1         1 YLX       0.061700
     49 H21        138.4570   135.3100   167.1970 h1         1 YLX       0.061700
     50 H22        138.1850   132.8650   167.5220 h1         1 YLX       0.049700
     51 H23        138.0720   132.6190   165.8000 h1         1 YLX       0.049700
     52 H24        138.7380   129.4610   164.7460 hc         1 YLX       0.046200
     53 H25        140.2560   130.0510   165.3800 hc         1 YLX       0.046200
     54 H26        139.4800   130.0650   167.6160 hc         1 YLX       0.050200
     55 H27        137.9390   130.3310   166.8240 hc         1 YLX       0.050200
     56 H28        137.9200   127.1770   169.2580 hc         1 YLX       0.078700
     57 H29        138.9260   128.5940   169.5000 hc         1 YLX       0.078700
     58 H30        134.6110   130.0140   169.8350 h1         1 YLX       0.067200
     59 H31        133.7860   129.4400   168.4040 h1         1 YLX       0.067200
@<TRIPOS>BOND
     1     1     2 1   
     2     1     6 1   
     3     1    29 1   
     4     1    30 1   
     5     2     3 1   
     6     2    20 1   
     7     2    21 1   
     8     3     4 1   
     9     3    31 1   
    10     3    32 1   
    11     4    19 1   
    12     4    33 1   
    13     4    34 1   
    14     5     6 1   
    15     5    22 1   
    16     5    23 1   
    17     6     7 2   
    18     8     9 1   
    19     8    23 1   
    20     8    35 1   
    21     8    36 1   
    22     9    10 1   
    23     9    37 1   
    24     9    38 1   
    25    10    24 1   
    26    10    39 1   
    27    10    40 1   
    28    11    12 1   
    29    11    24 1   
    30    11    41 1   
    31    11    42 1   
    32    12    25 1   
    33    12    43 1   
    34    12    44 1   
    35    13    25 1   
    36    13    26 ar  
    37    13    27 ar  
    38    14    15 ar  
    39    14    26 ar  
    40    14    45 1   
    41    15    16 ar  
    42    15    46 1   
    43    16    27 ar  
    44    16    47 1   
    45    17    18 1   
    46    17    25 1   
    47    17    48 1   
    48    17    49 1   
    49    18    24 1   
    50    18    50 1   
    51    18    51 1   
    52    19    20 1   
    53    19    52 1   
    54    19    53 1   
    55    20    54 1   
    56    20    55 1   
    57    21    22 1   
    58    21    56 1   
    59    21    57 1   
    60    22    28 2   
    61    23    58 1   
    62    23    59 1   
@<TRIPOS>SUBSTRUCTURE
     1 YLX         1 TEMP              0 ****  ****    0 ROOT
