@<TRIPOS>MOLECULE
YM2
   60    62     1     0     0
SMALL
abcg2


@<TRIPOS>ATOM
      1 CAA         12.1520     0.6470    -1.5470 c3         1 YM2      -0.099100
      2 CAM         10.6860     0.3250    -1.7260 c3         1 YM2       0.169600
      3 OAV         10.0090     0.7050    -0.5350 os         1 YM2      -0.321000
      4 NAT          8.6830     0.4060    -0.6250 n2         1 YM2      -0.337700
      5 CAD          8.0300     0.7770     0.4000 ce         1 YM2       0.427800
      6 CAY          6.5940     0.5470     0.5140 ca         1 YM2      -0.181900
      7 CAJ          5.9200     1.0360     1.6350 ca         1 YM2      -0.042500
      8 CAL          4.5600     0.8510     1.7900 ca         1 YM2      -0.183000
      9 CAI          5.8560    -0.1420    -0.4480 ca         1 YM2      -0.042500
     10 CAK          4.4930    -0.3390    -0.3040 ca         1 YM2      -0.183000
     11 CAZ          3.8310     0.1590     0.8210 ca         1 YM2       0.163100
     12 OAW          2.5160     0.0230     1.0480 os         1 YM2      -0.349100
     13 CAN          1.7260    -0.7350     0.1410 c3         1 YM2       0.166600
     14 CAO          0.3070    -0.7490     0.6700 c3         1 YM2      -0.081400
     15 CBB         -0.6620    -1.5350    -0.2190 c3         1 YM2      -0.052700
     16 CAB         -0.3780    -3.0360    -0.1740 c3         1 YM2      -0.093100
     17 CAP         -2.0980    -1.2180     0.2040 c3         1 YM2      -0.106400
     18 CAQ         -3.1600    -1.8680    -0.6790 c3         1 YM2       0.119000
     19 NBC         -4.5090    -1.5290    -0.2910 n          1 YM2      -0.413800
     20 CAX         -5.1030    -0.3710    -0.6580 c          1 YM2       0.614000
     21 OAC         -4.6840     0.4230    -1.4790 o          1 YM2      -0.556000
     22 CAR         -5.1640    -2.1390     0.8430 c5         1 YM2       0.083000
     23 CAS         -6.5440    -1.4930     0.7990 c5         1 YM2       0.084000
     24 NBD         -6.2920    -0.2670     0.0560 n          1 YM2      -0.236400
     25 CBA         -7.2500     0.7140    -0.0900 ca         1 YM2       0.042000
     26 CAG         -6.9960     1.9700    -0.6580 ca         1 YM2      -0.211000
     27 CAE         -8.0260     2.8880    -0.7270 ca         1 YM2       0.355400
     28 NAU         -9.2640     2.6790    -0.2870 nb         1 YM2      -0.682000
     29 CAF         -9.4960     1.4900     0.2550 ca         1 YM2       0.355400
     30 CAH         -8.5490     0.4890     0.3790 ca         1 YM2      -0.211000
     31 HAA1        12.3110     1.7120    -1.3740 hc         1 YM2       0.043367
     32 HAA2        12.5860     0.0920    -0.7160 hc         1 YM2       0.043367
     33 HAA3        12.6940     0.3720    -2.4510 hc         1 YM2       0.043367
     34 HAM1        10.2740     0.8690    -2.5820 h1         1 YM2       0.036200
     35 HAM2        10.5470    -0.7440    -1.9130 h1         1 YM2       0.036200
     36 HAD1         8.5180     1.2840     1.2330 h4         1 YM2       0.002800
     37 HAJ          6.4680     1.5720     2.4010 ha         1 YM2       0.121500
     38 HAI          6.3500    -0.5370    -1.3250 ha         1 YM2       0.121500
     39 HAL          4.0520     1.2380     2.6640 ha         1 YM2       0.123500
     40 HAK          3.9630    -0.8820    -1.0740 ha         1 YM2       0.123500
     41 HAN1         1.7520    -0.2820    -0.8570 h1         1 YM2       0.037200
     42 HAN2         2.1320    -1.7490     0.0560 h1         1 YM2       0.037200
     43 HAO1         0.2960    -1.1710     1.6800 hc         1 YM2       0.057700
     44 HAO2        -0.0400     0.2850     0.7540 hc         1 YM2       0.057700
     45 HBB         -0.5340    -1.1880    -1.2530 hc         1 YM2       0.052700
     46 HAB1        -0.5670    -3.4330     0.8260 hc         1 YM2       0.035033
     47 HAB2        -1.0010    -3.5910    -0.8750 hc         1 YM2       0.035033
     48 HAB3         0.6570    -3.2630    -0.4310 hc         1 YM2       0.035033
     49 HAP1        -2.2400    -1.5300     1.2450 hc         1 YM2       0.050200
     50 HAP2        -2.2430    -0.1340     0.1800 hc         1 YM2       0.050200
     51 HAQ1        -3.0150    -1.5740    -1.7200 h1         1 YM2       0.062200
     52 HAQ2        -3.0820    -2.9560    -0.6480 h1         1 YM2       0.062200
     53 HAR1        -5.2160    -3.2220     0.7380 h1         1 YM2       0.054700
     54 HAR2        -4.6470    -1.9090     1.7790 h1         1 YM2       0.054700
     55 HAS1        -7.2670    -2.1240     0.2740 h1         1 YM2       0.060200
     56 HAS2        -6.9290    -1.2810     1.7950 h1         1 YM2       0.060200
     57 HAG         -6.0240     2.2430    -1.0320 ha         1 YM2       0.135500
     58 HAH         -8.8410    -0.4480     0.8290 ha         1 YM2       0.135500
     59 HAE         -7.8280     3.8610    -1.1650 h4         1 YM2       0.017100
     60 HAF        -10.5020     1.3090     0.6180 h4         1 YM2       0.017100
@<TRIPOS>BOND
     1     1     2 1   
     2     1    31 1   
     3     1    32 1   
     4     1    33 1   
     5     2     3 1   
     6     2    34 1   
     7     2    35 1   
     8     3     4 1   
     9     4     5 2   
    10     5     6 1   
    11     5    36 1   
    12     6     7 ar  
    13     6     9 ar  
    14     7     8 ar  
    15     7    37 1   
    16     8    11 ar  
    17     8    39 1   
    18     9    10 ar  
    19     9    38 1   
    20    10    11 ar  
    21    10    40 1   
    22    11    12 1   
    23    12    13 1   
    24    13    14 1   
    25    13    41 1   
    26    13    42 1   
    27    14    15 1   
    28    14    43 1   
    29    14    44 1   
    30    15    16 1   
    31    15    17 1   
    32    15    45 1   
    33    16    46 1   
    34    16    47 1   
    35    16    48 1   
    36    17    18 1   
    37    17    49 1   
    38    17    50 1   
    39    18    19 1   
    40    18    51 1   
    41    18    52 1   
    42    19    20 1   
    43    19    22 1   
    44    20    21 2   
    45    20    24 1   
    46    22    23 1   
    47    22    53 1   
    48    22    54 1   
    49    23    24 1   
    50    23    55 1   
    51    23    56 1   
    52    24    25 1   
    53    25    26 ar  
    54    25    30 ar  
    55    26    27 ar  
    56    26    57 1   
    57    27    28 ar  
    58    27    59 1   
    59    28    29 ar  
    60    29    30 ar  
    61    29    60 1   
    62    30    58 1   
@<TRIPOS>SUBSTRUCTURE
     1 YM2         1 TEMP              0 ****  ****    0 ROOT
