@<TRIPOS>MOLECULE
YM2
   60    62     1     0     0
SMALL
No Charge or Current Charge


@<TRIPOS>ATOM
      1 CAA         12.4350     0.6390    -1.6200 c3         1 YM2      -0.099100
      2 CAM         10.9600     0.2160    -1.7170 c3         1 YM2       0.169600
      3 OAV         10.2690     0.7710    -0.5830 os         1 YM2      -0.321000
      4 NAT          8.9050     0.4150    -0.6180 n2         1 YM2      -0.337700
      5 CAD          8.2120     0.8810     0.3770 ce         1 YM2       0.427800
      6 CAY          6.7460     0.6130     0.5190 ca         1 YM2      -0.181900
      7 CAJ          6.0530     1.1480     1.6230 ca         1 YM2      -0.042500
      8 CAL          4.6770     0.9120     1.7810 ca         1 YM2      -0.183000
      9 CAI          6.0370    -0.1640    -0.4250 ca         1 YM2      -0.042500
     10 CAK          4.6600    -0.3990    -0.2640 ca         1 YM2      -0.183000
     11 CAZ          3.9740     0.1410     0.8440 ca         1 YM2       0.163100
     12 OAW          2.6250    -0.0560     1.0530 os         1 YM2      -0.349100
     13 CAN          1.8160    -0.8310     0.1520 c3         1 YM2       0.166600
     14 CAO          0.3730    -0.8280     0.7020 c3         1 YM2      -0.081400
     15 CBB         -0.6770    -1.5070    -0.2220 c3         1 YM2      -0.052700
     16 CAB         -0.3700    -3.0100    -0.4500 c3         1 YM2      -0.093100
     17 CAP         -2.1110    -1.2820     0.3350 c3         1 YM2      -0.106400
     18 CAQ         -3.2500    -1.7520    -0.5960 c3         1 YM2       0.119000
     19 NBC         -4.5830    -1.4090    -0.0660 n          1 YM2      -0.413800
     20 CAX         -5.2970    -0.3120    -0.5190 c          1 YM2       0.614000
     21 OAC         -4.9100     0.4640    -1.3810 o          1 YM2      -0.556000
     22 CAR         -5.2960    -2.1720     0.9730 c5         1 YM2       0.083000
     23 CAS         -6.6740    -1.4250     1.0690 c5         1 YM2       0.084000
     24 NBD         -6.5160    -0.2660     0.1570 n          1 YM2      -0.236400
     25 CBA         -7.5290     0.7530     0.0290 ca         1 YM2       0.042000
     26 CAG         -7.2370     2.0580    -0.4110 ca         1 YM2      -0.211000
     27 CAE         -8.2800     2.9610    -0.6670 ca         1 YM2       0.355400
     28 NAU         -9.5850     2.6280    -0.5590 nb         1 YM2      -0.682000
     29 CAF         -9.8760     1.3600    -0.2000 ca         1 YM2       0.355400
     30 CAH         -8.8910     0.3980     0.0760 ca         1 YM2      -0.211000
     31 HAA1        12.5250     1.7320    -1.6340 hc         1 YM2       0.043367
     32 HAA2        12.8850     0.2610    -0.6950 hc         1 YM2       0.043367
     33 HAA3        13.0010     0.2360    -2.4680 hc         1 YM2       0.043367
     34 HAM1        10.5340     0.5910    -2.6580 h1         1 YM2       0.036200
     35 HAM2        10.8940    -0.8800    -1.7170 h1         1 YM2       0.036200
     36 HAD1         8.6760     1.4920     1.1550 h4         1 YM2       0.002800
     37 HAJ          6.5810     1.7500     2.3620 ha         1 YM2       0.121500
     38 HAI          6.5480    -0.5900    -1.2870 ha         1 YM2       0.121500
     39 HAL          4.1520     1.3290     2.6360 ha         1 YM2       0.123500
     40 HAK          4.1460    -1.0000    -1.0080 ha         1 YM2       0.123500
     41 HAN1         1.8260    -0.3880    -0.8530 h1         1 YM2       0.037200
     42 HAN2         2.1920    -1.8600     0.0900 h1         1 YM2       0.037200
     43 HAO1         0.3650    -1.3180     1.6830 hc         1 YM2       0.057700
     44 HAO2         0.0770     0.2150     0.8680 hc         1 YM2       0.057700
     45 HBB         -0.6240    -1.0080    -1.1990 hc         1 YM2       0.052700
     46 HAB1        -0.4110    -3.5650     0.4950 hc         1 YM2       0.035033
     47 HAB2        -1.0860    -3.4620    -1.1450 hc         1 YM2       0.035033
     48 HAB3         0.6250    -3.1510    -0.8870 hc         1 YM2       0.035033
     49 HAP1        -2.2090    -1.7870     1.3040 hc         1 YM2       0.050200
     50 HAP2        -2.2530    -0.2110     0.5250 hc         1 YM2       0.050200
     51 HAQ1        -3.1180    -1.3040    -1.5900 h1         1 YM2       0.062200
     52 HAQ2        -3.2020    -2.8410    -0.7170 h1         1 YM2       0.062200
     53 HAR1        -5.4240    -3.2230     0.6840 h1         1 YM2       0.054700
     54 HAR2        -4.7540    -2.1360     1.9270 h1         1 YM2       0.054700
     55 HAS1        -7.4920    -2.0780     0.7380 h1         1 YM2       0.060200
     56 HAS2        -6.8860    -1.0980     2.0950 h1         1 YM2       0.060200
     57 HAG         -6.2150     2.4010    -0.5270 ha         1 YM2       0.135500
     58 HAH         -9.2030    -0.6110     0.3240 ha         1 YM2       0.135500
     59 HAE         -8.0650     3.9830    -0.9790 h4         1 YM2       0.017100
     60 HAF        -10.9330     1.1010    -0.1460 h4         1 YM2       0.017100
@<TRIPOS>BOND
     1     1     2 1   
     2     1    31 1   
     3     1    32 1   
     4     1    33 1   
     5     2     3 1   
     6     2    34 1   
     7     2    35 1   
     8     3     4 1   
     9     4     5 2   
    10     5     6 1   
    11     5    36 1   
    12     6     7 ar  
    13     6     9 ar  
    14     7     8 ar  
    15     7    37 1   
    16     8    11 ar  
    17     8    39 1   
    18     9    10 ar  
    19     9    38 1   
    20    10    11 ar  
    21    10    40 1   
    22    11    12 1   
    23    12    13 1   
    24    13    14 1   
    25    13    41 1   
    26    13    42 1   
    27    14    15 1   
    28    14    43 1   
    29    14    44 1   
    30    15    16 1   
    31    15    17 1   
    32    15    45 1   
    33    16    46 1   
    34    16    47 1   
    35    16    48 1   
    36    17    18 1   
    37    17    49 1   
    38    17    50 1   
    39    18    19 1   
    40    18    51 1   
    41    18    52 1   
    42    19    20 1   
    43    19    22 1   
    44    20    21 2   
    45    20    24 1   
    46    22    23 1   
    47    22    53 1   
    48    22    54 1   
    49    23    24 1   
    50    23    55 1   
    51    23    56 1   
    52    24    25 1   
    53    25    26 ar  
    54    25    30 ar  
    55    26    27 ar  
    56    26    57 1   
    57    27    28 ar  
    58    27    59 1   
    59    28    29 ar  
    60    29    30 ar  
    61    29    60 1   
    62    30    58 1   
@<TRIPOS>SUBSTRUCTURE
     1 YM2         1 TEMP              0 ****  ****    0 ROOT
