@<TRIPOS>MOLECULE
YM3
   41    43     1     0     0
SMALL
No Charge or Current Charge


@<TRIPOS>ATOM
      1 CAC          4.9510     2.2260     0.7780 c3         1 YM3      -0.098100
      2 CAB          3.6110     2.3050     0.0300 c3         1 YM3       0.167600
      3 CAQ          1.8160     0.8150    -0.5610 c          1 YM3       0.625700
      4 CAR          1.3460    -0.5830    -0.4760 ca         1 YM3      -0.318600
      5 CAG          2.2650    -1.6170    -0.7030 ca         1 YM3       0.451900
      6 NAN          1.9310    -2.9300    -0.6640 nb         1 YM3      -0.716000
      7 CAU          0.6530    -3.2210    -0.3850 ca         1 YM3       0.416500
      8 NAO          0.0090    -4.4350    -0.2680 na         1 YM3      -0.158100
      9 NAM         -1.3520    -4.2760     0.0540 nc         1 YM3      -0.516100
     10 CAH         -1.5130    -2.9480     0.1260 cd         1 YM3       0.375800
     11 CAT         -0.2780    -2.2690    -0.1450 ca         1 YM3      -0.349900
     12 CAS          0.0260    -0.9180    -0.1760 ca         1 YM3       0.496000
     13 NAV         -0.9490     0.0420     0.1300 nh         1 YM3      -0.804400
     14 CAL         -1.9980     0.3670    -0.8870 c6         1 YM3       0.179800
     15 CAK         -1.4120     0.1790     1.5470 c6         1 YM3       0.190800
     16 CAJ         -2.1650     1.5180     1.7920 c6         1 YM3       0.139600
     17 OAP         -3.2200     1.7050     0.8130 os         1 YM3      -0.444000
     18 CAW         -2.7620     1.6940    -0.5720 c6         1 YM3       0.159300
     19 CAI         -1.9110     2.9770    -0.8750 c3         1 YM3       0.117800
     20 NAA         -2.6160     4.2640    -0.6260 n8         1 YM3      -0.993200
     21 O03          3.0300     0.9910     0.0490 os         1 YM3      -0.451100
     22 O05          1.2160     1.7020    -1.1510 o          1 YM3      -0.500000
     23 HAC1         4.7960     1.9040     1.8150 hc         1 YM3       0.047700
     24 HAC2         5.6260     1.5150     0.2870 hc         1 YM3       0.047700
     25 HAC3         5.4370     3.2080     0.7910 hc         1 YM3       0.047700
     26 HAB1         2.9550     3.0310     0.5280 h1         1 YM3       0.047200
     27 HAB2         3.7870     2.6410    -1.0010 h1         1 YM3       0.047200
     28 HAG          3.3050    -1.3980    -0.9410 h4         1 YM3       0.033100
     29 HAO          0.4470    -5.3430    -0.3920 hn         1 YM3       0.389000
     30 HAH         -2.4910    -2.5470     0.3620 h4         1 YM3       0.049800
     31 HAL1        -1.5440     0.4500    -1.8860 h1         1 YM3       0.057200
     32 HAL2        -2.7330    -0.4500    -0.9360 h1         1 YM3       0.057200
     33 HAK1        -2.0820    -0.6530     1.8080 h1         1 YM3       0.055200
     34 HAK2        -0.5520     0.1320     2.2320 h1         1 YM3       0.055200
     35 HAW         -3.6470     1.7350    -1.2240 h1         1 YM3       0.089700
     36 HAJ1        -2.6090     1.5100     2.7970 h1         1 YM3       0.062200
     37 HAJ2        -1.4590     2.3580     1.7500 h1         1 YM3       0.062200
     38 HAI1        -0.9940     2.9550    -0.2710 h1         1 YM3       0.045200
     39 HAI2        -1.6040     2.9510    -1.9300 h1         1 YM3       0.045200
     40 HAA1        -2.9260     4.2790     0.3540 hn         1 YM3       0.397000
     41 HAA2        -1.9420     5.0370    -0.6820 hn         1 YM3       0.397000
@<TRIPOS>BOND
     1     1     2 1   
     2     1    23 1   
     3     1    24 1   
     4     1    25 1   
     5     2    21 1   
     6     2    26 1   
     7     2    27 1   
     8     3     4 1   
     9     3    21 1   
    10     3    22 2   
    11     4     5 ar  
    12     4    12 ar  
    13     5     6 ar  
    14     5    28 1   
    15     6     7 ar  
    16     7     8 1   
    17     7    11 ar  
    18     8     9 1   
    19     8    29 1   
    20     9    10 2   
    21    10    11 1   
    22    10    30 1   
    23    11    12 ar  
    24    12    13 1   
    25    13    14 1   
    26    13    15 1   
    27    14    18 1   
    28    14    31 1   
    29    14    32 1   
    30    15    16 1   
    31    15    33 1   
    32    15    34 1   
    33    16    17 1   
    34    16    36 1   
    35    16    37 1   
    36    17    18 1   
    37    18    19 1   
    38    18    35 1   
    39    19    20 1   
    40    19    38 1   
    41    19    39 1   
    42    20    40 1   
    43    20    41 1   
@<TRIPOS>SUBSTRUCTURE
     1 YM3         1 TEMP              0 ****  ****    0 ROOT
