@<TRIPOS>MOLECULE
YM3
   41    43     1     0     0
SMALL
abcg2


@<TRIPOS>ATOM
      1 CAC          5.0960     1.8630     1.3110 c3         1 YM3      -0.098100
      2 CAB          3.7600     2.1400     0.6650 c3         1 YM3       0.167600
      3 CAQ          1.8530     0.8930     0.0100 c          1 YM3       0.625700
      4 CAR          1.3090    -0.4760    -0.1420 ca         1 YM3      -0.318600
      5 CAG          2.2130    -1.4820    -0.5330 ca         1 YM3       0.451900
      6 NAN          1.8960    -2.6910    -0.9420 nb         1 YM3      -0.716000
      7 CAU          0.5820    -2.9100    -0.9650 ca         1 YM3       0.416500
      8 NAO         -0.0190    -4.0640    -1.3040 na         1 YM3      -0.158100
      9 NAM         -1.3470    -4.0030    -1.1730 nc         1 YM3      -0.516100
     10 CAH         -1.6290    -2.8020    -0.7440 cd         1 YM3       0.375800
     11 CAT         -0.4450    -2.0240    -0.5920 ca         1 YM3      -0.349900
     12 CAS         -0.0810    -0.7390    -0.1220 ca         1 YM3       0.496000
     13 NAV         -0.9890     0.1510     0.3490 nh         1 YM3      -0.804400
     14 CAL         -2.3930     0.0730    -0.0020 c6         1 YM3       0.179800
     15 CAK         -0.7920     0.8700     1.6010 c6         1 YM3       0.190800
     16 CAJ         -1.4050     2.2510     1.5200 c6         1 YM3       0.139600
     17 OAP         -2.7680     2.1770     1.1530 os         1 YM3      -0.444000
     18 CAW         -2.9910     1.4780    -0.0580 c6         1 YM3       0.159300
     19 CAI         -2.5090     2.2550    -1.2800 c3         1 YM3       0.117800
     20 NAA         -3.1030     3.5810    -1.3060 n8         1 YM3      -0.993200
     21 O03          3.0550     0.8910     0.5720 os         1 YM3      -0.451100
     22 O05          1.3030     1.8990    -0.3720 o          1 YM3      -0.500000
     23 HAC1         4.9790     1.4500     2.3130 hc         1 YM3       0.047700
     24 HAC2         5.6940     1.1740     0.7170 hc         1 YM3       0.047700
     25 HAC3         5.6490     2.7980     1.3990 hc         1 YM3       0.047700
     26 HAB1         3.1770     2.8450     1.2600 h1         1 YM3       0.047200
     27 HAB2         3.8890     2.5660    -0.3320 h1         1 YM3       0.047200
     28 HAG          3.2720    -1.2530    -0.5340 h4         1 YM3       0.033100
     29 HAO          0.4250    -4.9150    -1.6120 hn         1 YM3       0.389000
     30 HAH         -2.6560    -2.5330    -0.5590 h4         1 YM3       0.049800
     31 HAL1        -2.5090    -0.3810    -0.9850 h1         1 YM3       0.057200
     32 HAL2        -2.9480    -0.5360     0.7230 h1         1 YM3       0.057200
     33 HAK1        -1.2840     0.3000     2.4010 h1         1 YM3       0.055200
     34 HAK2         0.2570     0.9380     1.8730 h1         1 YM3       0.055200
     35 HAW         -4.0770     1.3720    -0.1350 h1         1 YM3       0.089700
     36 HAJ1        -1.3670     2.7230     2.5020 h1         1 YM3       0.062200
     37 HAJ2        -0.8320     2.8740     0.8260 h1         1 YM3       0.062200
     38 HAI1        -1.4120     2.2530    -1.3300 h1         1 YM3       0.045200
     39 HAI2        -2.8540     1.7080    -2.1610 h1         1 YM3       0.045200
     40 HAA1        -2.7130     4.1440    -0.5600 hn         1 YM3       0.397000
     41 HAA2        -2.8370     4.0460    -2.1640 hn         1 YM3       0.397000
@<TRIPOS>BOND
     1     1     2 1   
     2     1    23 1   
     3     1    24 1   
     4     1    25 1   
     5     2    21 1   
     6     2    26 1   
     7     2    27 1   
     8     3     4 1   
     9     3    21 1   
    10     3    22 2   
    11     4     5 ar  
    12     4    12 ar  
    13     5     6 ar  
    14     5    28 1   
    15     6     7 ar  
    16     7     8 1   
    17     7    11 ar  
    18     8     9 1   
    19     8    29 1   
    20     9    10 2   
    21    10    11 1   
    22    10    30 1   
    23    11    12 ar  
    24    12    13 1   
    25    13    14 1   
    26    13    15 1   
    27    14    18 1   
    28    14    31 1   
    29    14    32 1   
    30    15    16 1   
    31    15    33 1   
    32    15    34 1   
    33    16    17 1   
    34    16    36 1   
    35    16    37 1   
    36    17    18 1   
    37    18    19 1   
    38    18    35 1   
    39    19    20 1   
    40    19    38 1   
    41    19    39 1   
    42    20    40 1   
    43    20    41 1   
@<TRIPOS>SUBSTRUCTURE
     1 YM3         1 TEMP              0 ****  ****    0 ROOT
