@<TRIPOS>MOLECULE
YM4
   67    72     1     0     0
SMALL
No Charge or Current Charge


@<TRIPOS>ATOM
      1 C01          0.3620    -6.1750     3.1340 c3         1 YM4      -0.136400
      2 C02          0.9750    -5.7130     1.8450 cc         1 YM4       0.190300
      3 C03          1.0710    -4.4810     1.2860 cd         1 YM4      -0.261000
      4 C04          1.7530    -4.6540     0.0670 cd         1 YM4       0.262300
      5 C05          2.1050    -3.5640    -0.9310 c3         1 YM4       0.136500
      6 N06          3.4820    -2.9970    -0.8040 n3         1 YM4      -0.710600
      7 C07          3.8120    -2.0070    -1.8790 c6         1 YM4       0.165800
      8 C08          3.0400    -0.6530    -1.7230 c6         1 YM4       0.166300
      9 N09          3.1890    -0.0610    -0.3570 nh         1 YM4      -0.802400
     10 C10          2.8880     1.3000    -0.1510 ca         1 YM4       0.350000
     11 C11          3.8950     2.2680    -0.0020 ca         1 YM4      -0.100900
     12 Br1          5.7580     1.7990    -0.0700 br         1 YM4      -0.079100
     13 C13          3.5130     3.6080     0.2030 ca         1 YM4       0.366900
     14 N14          2.2210     4.0170     0.2630 nb         1 YM4      -0.619000
     15 C15          1.2750     3.0790     0.1180 ca         1 YM4       0.500000
     16 N16         -0.0910     3.2690     0.1450 nc         1 YM4      -0.650700
     17 C17         -0.5880     2.0320    -0.0450 cd         1 YM4       0.511400
     18 C18         -2.0440     1.7700    -0.0870 ca         1 YM4      -0.185900
     19 C19         -2.9740     2.8230     0.0660 ca         1 YM4      -0.032000
     20 C20         -4.3560     2.5700     0.0270 ca         1 YM4      -0.193500
     21 C21         -4.8440     1.2650    -0.1660 ca         1 YM4       0.349000
     22 N22         -6.2320     0.9940    -0.2060 nh         1 YM4      -0.797400
     23 C23         -6.8230     0.2590    -1.3730 c6         1 YM4       0.172300
     24 C24         -8.1970    -0.4120    -1.0330 c6         1 YM4       0.154800
     25 N25         -9.1830     0.5370    -0.4260 n3         1 YM4      -0.708600
     26 C26         -9.7160     1.5290    -1.3900 c3         1 YM4       0.150100
     27 C27         -8.5760     1.1590     0.7930 c6         1 YM4       0.154800
     28 C28         -7.2140     1.8770     0.5060 c6         1 YM4       0.172300
     29 C29         -3.9210     0.2170    -0.3150 ca         1 YM4      -0.193500
     30 C30         -2.5370     0.4610    -0.2770 ca         1 YM4      -0.032000
     31 N31          0.3970     1.0530    -0.1950 na         1 YM4      -0.308600
     32 C32          1.5670     1.7590    -0.0830 ca         1 YM4      -0.174200
     33 C33          2.9920    -1.0360     0.7590 c6         1 YM4       0.166300
     34 C34          3.7710    -2.3730     0.5290 c6         1 YM4       0.165800
     35 N35          2.0720    -5.9210    -0.1510 nc         1 YM4      -0.328300
     36 O36          1.5690    -6.6240     1.0070 os         1 YM4      -0.081700
     37 H011        -0.4410    -6.8970     2.9440 hc         1 YM4       0.062367
     38 H012         1.1140    -6.6580     3.7690 hc         1 YM4       0.062367
     39 H013        -0.0620    -5.3320     3.6900 hc         1 YM4       0.062367
     40 H03          0.6990    -3.5510     1.6970 ha         1 YM4       0.149000
     41 H051         1.9760    -3.9850    -1.9370 h1         1 YM4       0.044700
     42 H052         1.3540    -2.7690    -0.8310 h1         1 YM4       0.044700
     43 H071         4.8890    -1.7840    -1.8580 h1         1 YM4       0.070200
     44 H072         3.6010    -2.4260    -2.8740 h1         1 YM4       0.070200
     45 H341         3.5450    -3.0680     1.3510 h1         1 YM4       0.070200
     46 H342         4.8460    -2.1500     0.6050 h1         1 YM4       0.070200
     47 H081         3.4200     0.0500    -2.4780 h1         1 YM4       0.039950
     48 H082         1.9760    -0.8190    -1.9440 h1         1 YM4       0.039950
     49 H331         3.3350    -0.5940     1.7060 h1         1 YM4       0.039950
     50 H332         1.9220    -1.2600     0.8770 h1         1 YM4       0.039950
     51 H13          4.2690     4.3840     0.3220 h4         1 YM4       0.036100
     52 H31          0.2650     0.0640    -0.3520 hn         1 YM4       0.357000
     53 H19         -2.6340     3.8460     0.2130 ha         1 YM4       0.119000
     54 H30         -1.8580    -0.3810    -0.3930 ha         1 YM4       0.119000
     55 H20         -5.0440     3.4020     0.1370 ha         1 YM4       0.116000
     56 H29         -4.2760    -0.8000    -0.4490 ha         1 YM4       0.116000
     57 H231        -6.9640     0.9560    -2.2130 h1         1 YM4       0.045700
     58 H232        -6.1400    -0.5270    -1.7260 h1         1 YM4       0.045700
     59 H281        -6.7950     2.2080     1.4680 h1         1 YM4       0.045700
     60 H282        -7.4060     2.7790    -0.0920 h1         1 YM4       0.045700
     61 H241        -8.6080    -0.8660    -1.9470 h1         1 YM4       0.062700
     62 H242        -8.0040    -1.2390    -0.3350 h1         1 YM4       0.062700
     63 H261       -10.1950     1.0230    -2.2390 h1         1 YM4       0.033033
     64 H262       -10.4710     2.1660    -0.9100 h1         1 YM4       0.033033
     65 H263        -8.9220     2.1780    -1.7830 h1         1 YM4       0.033033
     66 H271        -9.2710     1.8790     1.2480 h1         1 YM4       0.062700
     67 H272        -8.3950     0.3820     1.5500 h1         1 YM4       0.062700
@<TRIPOS>BOND
     1     1     2 1   
     2     1    37 1   
     3     1    38 1   
     4     1    39 1   
     5     2     3 2   
     6     2    36 1   
     7     3     4 1   
     8     3    40 1   
     9     4     5 1   
    10     4    35 2   
    11     5     6 1   
    12     5    41 1   
    13     5    42 1   
    14     6     7 1   
    15     6    34 1   
    16     7     8 1   
    17     7    43 1   
    18     7    44 1   
    19     8     9 1   
    20     8    47 1   
    21     8    48 1   
    22     9    10 1   
    23     9    33 1   
    24    10    11 ar  
    25    10    32 ar  
    26    11    12 1   
    27    11    13 ar  
    28    13    14 ar  
    29    13    51 1   
    30    14    15 ar  
    31    15    16 1   
    32    15    32 ar  
    33    16    17 2   
    34    17    18 1   
    35    17    31 1   
    36    18    19 ar  
    37    18    30 ar  
    38    19    20 ar  
    39    19    53 1   
    40    20    21 ar  
    41    20    55 1   
    42    21    22 1   
    43    21    29 ar  
    44    22    23 1   
    45    22    28 1   
    46    23    24 1   
    47    23    57 1   
    48    23    58 1   
    49    24    25 1   
    50    24    61 1   
    51    24    62 1   
    52    25    26 1   
    53    25    27 1   
    54    26    63 1   
    55    26    64 1   
    56    26    65 1   
    57    27    28 1   
    58    27    66 1   
    59    27    67 1   
    60    28    59 1   
    61    28    60 1   
    62    29    30 ar  
    63    29    56 1   
    64    30    54 1   
    65    31    32 1   
    66    31    52 1   
    67    33    34 1   
    68    33    49 1   
    69    33    50 1   
    70    34    45 1   
    71    34    46 1   
    72    35    36 1   
@<TRIPOS>SUBSTRUCTURE
     1 YM4         1 TEMP              0 ****  ****    0 ROOT
