@<TRIPOS>MOLECULE
YM4
   67    72     1     0     0
SMALL
abcg2


@<TRIPOS>ATOM
      1 C01          0.4740    -7.8690     1.1080 c3         1 YM4      -0.136400
      2 C02          1.2970    -6.6800     0.7920 cc         1 YM4       0.190300
      3 C03          1.1930    -5.7050    -0.1410 cd         1 YM4      -0.261000
      4 C04          2.3100    -4.8660     0.1130 cd         1 YM4       0.262300
      5 C05          2.6880    -3.6380    -0.6530 c3         1 YM4       0.136500
      6 N06          3.6430    -2.8080     0.0500 n3         1 YM4      -0.710600
      7 C07          4.3920    -1.9110    -0.8130 c6         1 YM4       0.165800
      8 C08          3.5950    -0.6950    -1.2620 c6         1 YM4       0.166300
      9 N09          3.0850     0.0020    -0.0840 nh         1 YM4      -0.802400
     10 C10          2.7370     1.3350    -0.2300 ca         1 YM4       0.350000
     11 C11          3.7020     2.3460    -0.3640 ca         1 YM4      -0.100900
     12 BR1          5.5340     1.9250    -0.2390 br         1 YM4      -0.079100
     13 C13          3.3540     3.6900    -0.5200 ca         1 YM4       0.366900
     14 N14          2.1100     4.1360    -0.5320 nb         1 YM4      -0.619000
     15 C15          1.1710     3.2100    -0.3850 ca         1 YM4       0.500000
     16 N16         -0.1710     3.4380    -0.3770 nc         1 YM4      -0.650700
     17 C17         -0.7290     2.2570    -0.2390 cd         1 YM4       0.511400
     18 C18         -2.1590     2.0220    -0.1660 ca         1 YM4      -0.185900
     19 C19         -3.0500     3.0730    -0.3830 ca         1 YM4      -0.032000
     20 C20         -4.4150     2.8940    -0.3030 ca         1 YM4      -0.193500
     21 C21         -4.9760     1.6410     0.0210 ca         1 YM4       0.349000
     22 N22         -6.3310     1.4700     0.1650 nh         1 YM4      -0.797400
     23 C23         -6.9210     0.1530    -0.0460 c6         1 YM4       0.172300
     24 C24         -8.3010     0.0510     0.5940 c6         1 YM4       0.154800
     25 N25         -9.2170     1.1000     0.1980 n3         1 YM4      -0.708600
     26 C26         -9.7060     0.9700    -1.1600 c3         1 YM4       0.150100
     27 C27         -8.6000     2.3770     0.4840 c6         1 YM4       0.154800
     28 C28         -7.2220     2.5790    -0.1400 c6         1 YM4       0.172300
     29 C29         -4.0690     0.5800     0.2130 ca         1 YM4      -0.193500
     30 C30         -2.7060     0.7710     0.1270 ca         1 YM4      -0.032000
     31 N31          0.1950     1.2590    -0.1590 na         1 YM4      -0.308600
     32 C32          1.4340     1.8340    -0.2430 ca         1 YM4      -0.174200
     33 C33          2.2580    -0.8570     0.7470 c6         1 YM4       0.166300
     34 C34          3.0820    -2.0710     1.1700 c6         1 YM4       0.165800
     35 N35          3.0100    -5.3120     1.1150 nc         1 YM4      -0.328300
     36 O36          2.3780    -6.4480     1.5430 os         1 YM4      -0.081700
     37 H011         1.0670    -8.7840     1.0690 hc         1 YM4       0.062367
     38 H012         0.0410    -7.7960     2.1060 hc         1 YM4       0.062367
     39 H013        -0.3380    -7.9570     0.3910 hc         1 YM4       0.062367
     40 H03          0.4360    -5.5900    -0.8980 ha         1 YM4       0.149000
     41 H051         3.1420    -3.9640    -1.5930 h1         1 YM4       0.044700
     42 H052         1.7590    -3.1280    -0.9440 h1         1 YM4       0.044700
     43 H071         5.2710    -1.5630    -0.2620 h1         1 YM4       0.070200
     44 H072         4.7520    -2.4590    -1.6850 h1         1 YM4       0.070200
     45 H341         2.4660    -2.7330     1.7790 h1         1 YM4       0.070200
     46 H342         3.9050    -1.7240     1.8000 h1         1 YM4       0.070200
     47 H081         4.2310    -0.0330    -1.8480 h1         1 YM4       0.039950
     48 H082         2.7630    -0.9930    -1.9170 h1         1 YM4       0.039950
     49 H331         1.9400    -0.3140     1.6380 h1         1 YM4       0.039950
     50 H332         1.3530    -1.2020     0.2240 h1         1 YM4       0.039950
     51 H13          4.1360     4.4330    -0.6240 h4         1 YM4       0.036100
     52 H31         -0.0020     0.2750    -0.0900 hn         1 YM4       0.357000
     53 H19         -2.6670     4.0540    -0.6330 ha         1 YM4       0.119000
     54 H30         -2.0720    -0.0880     0.3090 ha         1 YM4       0.119000
     55 H20         -5.0420     3.7490    -0.5060 ha         1 YM4       0.116000
     56 H29         -4.4140    -0.4120     0.4600 ha         1 YM4       0.116000
     57 H231        -6.9760    -0.0710    -1.1200 h1         1 YM4       0.045700
     58 H232        -6.3040    -0.6180     0.4080 h1         1 YM4       0.045700
     59 H281        -6.8200     3.4980     0.2860 h1         1 YM4       0.045700
     60 H282        -7.2980     2.7380    -1.2240 h1         1 YM4       0.045700
     61 H241        -8.7260    -0.9240     0.3470 h1         1 YM4       0.062700
     62 H242        -8.1850     0.0890     1.6820 h1         1 YM4       0.062700
     63 H261       -10.2120     0.0090    -1.2710 h1         1 YM4       0.033033
     64 H262       -10.4400     1.7530    -1.3580 h1         1 YM4       0.033033
     65 H263        -8.9420     1.0300    -1.9460 h1         1 YM4       0.033033
     66 H271        -9.2530     3.1870     0.1510 h1         1 YM4       0.062700
     67 H272        -8.5020     2.4700     1.5710 h1         1 YM4       0.062700
@<TRIPOS>BOND
     1     1     2 1   
     2     1    37 1   
     3     1    38 1   
     4     1    39 1   
     5     2     3 2   
     6     2    36 1   
     7     3     4 1   
     8     3    40 1   
     9     4     5 1   
    10     4    35 2   
    11     5     6 1   
    12     5    41 1   
    13     5    42 1   
    14     6     7 1   
    15     6    34 1   
    16     7     8 1   
    17     7    43 1   
    18     7    44 1   
    19     8     9 1   
    20     8    47 1   
    21     8    48 1   
    22     9    10 1   
    23     9    33 1   
    24    10    11 ar  
    25    10    32 ar  
    26    11    12 1   
    27    11    13 ar  
    28    13    14 ar  
    29    13    51 1   
    30    14    15 ar  
    31    15    16 1   
    32    15    32 ar  
    33    16    17 2   
    34    17    18 1   
    35    17    31 1   
    36    18    19 ar  
    37    18    30 ar  
    38    19    20 ar  
    39    19    53 1   
    40    20    21 ar  
    41    20    55 1   
    42    21    22 1   
    43    21    29 ar  
    44    22    23 1   
    45    22    28 1   
    46    23    24 1   
    47    23    57 1   
    48    23    58 1   
    49    24    25 1   
    50    24    61 1   
    51    24    62 1   
    52    25    26 1   
    53    25    27 1   
    54    26    63 1   
    55    26    64 1   
    56    26    65 1   
    57    27    28 1   
    58    27    66 1   
    59    27    67 1   
    60    28    59 1   
    61    28    60 1   
    62    29    30 ar  
    63    29    56 1   
    64    30    54 1   
    65    31    32 1   
    66    31    52 1   
    67    33    34 1   
    68    33    49 1   
    69    33    50 1   
    70    34    45 1   
    71    34    46 1   
    72    35    36 1   
@<TRIPOS>SUBSTRUCTURE
     1 YM4         1 TEMP              0 ****  ****    0 ROOT
