@<TRIPOS>MOLECULE
YM5
   46    49     1     0     0
SMALL
No Charge or Current Charge


@<TRIPOS>ATOM
      1 N01          3.3880     3.1740     1.3420 n8         1 YM5      -0.981200
      2 C02          2.0110     2.6570     1.5770 c3         1 YM5       0.156800
      3 C03          1.1850     2.3100     0.2930 c6         1 YM5       0.161300
      4 C04         -0.2060     1.7000     0.6550 c6         1 YM5       0.168800
      5 N05         -1.0870     1.5120    -0.5430 nh         1 YM5      -0.754300
      6 C06         -2.2230     0.6820    -0.4150 ca         1 YM5       0.413900
      7 N07         -3.4200     1.3060    -0.4880 nb         1 YM5      -0.286000
      8 C08         -4.5150     0.5760    -0.1800 ca         1 YM5       0.171900
      9 N09         -4.5360    -0.7080     0.2410 nb         1 YM5      -0.218000
     10 C10         -3.3430    -1.3230     0.2990 ca         1 YM5       0.133500
     11 N11         -3.0220    -2.5900     0.7500 na         1 YM5      -0.313400
     12 C12         -1.6360    -2.8240     0.6800 cc         1 YM5      -0.160100
     13 C13         -1.1130    -1.6830     0.0900 cd         1 YM5      -0.057400
     14 C14          0.3120    -1.5390    -0.2770 ca         1 YM5      -0.021800
     15 C15          0.7090    -0.7790    -1.3960 ca         1 YM5      -0.087000
     16 C16          2.0620    -0.6890    -1.7610 ca         1 YM5      -0.118000
     17 C17          3.0390    -1.3670    -1.0160 ca         1 YM5      -0.087000
     18 C18          2.6620    -2.1560     0.0870 ca         1 YM5      -0.093300
     19 C19          3.7180    -2.9030     0.8920 c3         1 YM5       0.210900
     20 O20          3.9710    -4.1870     0.3120 oh         1 YM5      -0.657000
     21 C21          1.3010    -2.2490     0.4390 ca         1 YM5      -0.112000
     22 C22         -2.1750    -0.6900    -0.0700 ca         1 YM5      -0.213800
     23 C23         -1.1230     2.7100    -1.4450 c6         1 YM5       0.168800
     24 C24          0.3010     3.2690    -1.7320 c6         1 YM5       0.144600
     25 O25          1.0140     3.5140    -0.4980 os         1 YM5      -0.430000
     26 H011         3.8680     3.2770     2.2450 hn         1 YM5       0.392500
     27 H012         3.9380     2.4580     0.8540 hn         1 YM5       0.392500
     28 H021         2.0920     1.7460     2.1870 h1         1 YM5       0.036200
     29 H022         1.4550     3.4020     2.1630 h1         1 YM5       0.036200
     30 H03          1.7550     1.5790    -0.2960 h1         1 YM5       0.051700
     31 H041        -0.0430     0.7400     1.1670 h1         1 YM5       0.056700
     32 H042        -0.7070     2.3640     1.3760 h1         1 YM5       0.056700
     33 H231        -1.5930     2.4500    -2.4050 h1         1 YM5       0.061700
     34 H232        -1.7280     3.5090    -0.9900 h1         1 YM5       0.061700
     35 H15         -0.0360    -0.2870    -2.0130 ha         1 YM5       0.127000
     36 H21          1.0170    -2.8600     1.2920 ha         1 YM5       0.109000
     37 H16          2.3520    -0.1000    -2.6280 ha         1 YM5       0.117000
     38 H17          4.0860    -1.2930    -1.3030 ha         1 YM5       0.130000
     39 H191         4.6420    -2.3090     0.9160 h1         1 YM5       0.024200
     40 H192         3.3730    -3.0150     1.9290 h1         1 YM5       0.024200
     41 H20          4.6530    -4.6190     0.8720 ho         1 YM5       0.446000
     42 H241         0.8690     2.5500    -2.3410 h1         1 YM5       0.052200
     43 H242         0.2260     4.2080    -2.2980 h1         1 YM5       0.052200
     44 H11         -3.7090    -3.2530     1.0970 hn         1 YM5       0.365000
     45 H08         -5.4750     1.0850    -0.2410 h5         1 YM5       0.047100
     46 H12         -1.1700    -3.7620     0.9700 h4         1 YM5       0.221000
@<TRIPOS>BOND
     1     1     2 1   
     2     1    26 1   
     3     1    27 1   
     4     2     3 1   
     5     2    28 1   
     6     2    29 1   
     7     3     4 1   
     8     3    25 1   
     9     3    30 1   
    10     4     5 1   
    11     4    31 1   
    12     4    32 1   
    13     5     6 1   
    14     5    23 1   
    15     6     7 ar  
    16     6    22 ar  
    17     7     8 ar  
    18     8     9 ar  
    19     8    45 1   
    20     9    10 ar  
    21    10    11 1   
    22    10    22 ar  
    23    11    12 1   
    24    11    44 1   
    25    12    13 2   
    26    12    46 1   
    27    13    14 1   
    28    13    22 1   
    29    14    15 ar  
    30    14    21 ar  
    31    15    16 ar  
    32    15    35 1   
    33    16    17 ar  
    34    16    37 1   
    35    17    18 ar  
    36    17    38 1   
    37    18    19 1   
    38    18    21 ar  
    39    19    20 1   
    40    19    39 1   
    41    19    40 1   
    42    20    41 1   
    43    21    36 1   
    44    23    24 1   
    45    23    33 1   
    46    23    34 1   
    47    24    25 1   
    48    24    42 1   
    49    24    43 1   
@<TRIPOS>SUBSTRUCTURE
     1 YM5         1 TEMP              0 ****  ****    0 ROOT
