@<TRIPOS>MOLECULE
YM5
   46    49     1     0     0
SMALL
abcg2


@<TRIPOS>ATOM
      1 N01          3.5980     2.4260     0.5580 n8         1 YM5      -0.981200
      2 C02          2.2950     2.1000     1.1130 c3         1 YM5       0.156800
      3 C03          1.2210     2.1110     0.0430 c6         1 YM5       0.161300
      4 C04         -0.0850     1.5420     0.5710 c6         1 YM5       0.168800
      5 N05         -1.1170     1.6050    -0.4560 nh         1 YM5      -0.754300
      6 C06         -2.2120     0.7950    -0.3450 ca         1 YM5       0.413900
      7 N07         -3.4120     1.3460    -0.5210 nb         1 YM5      -0.286000
      8 C08         -4.5060     0.6170    -0.3220 ca         1 YM5       0.171900
      9 N09         -4.5730    -0.6350     0.0780 nb         1 YM5      -0.218000
     10 C10         -3.3730    -1.2040     0.1880 ca         1 YM5       0.133500
     11 N11         -3.1440    -2.4950     0.5170 na         1 YM5      -0.313400
     12 C12         -1.8040    -2.7490     0.4360 cc         1 YM5      -0.160100
     13 C13         -1.1310    -1.6160     0.0680 cd         1 YM5      -0.057400
     14 C14          0.3020    -1.5710    -0.2460 ca         1 YM5      -0.021800
     15 C15          0.7420    -1.0540    -1.4670 ca         1 YM5      -0.087000
     16 C16          2.0940    -1.0310    -1.7630 ca         1 YM5      -0.118000
     17 C17          3.0290    -1.5140    -0.8540 ca         1 YM5      -0.087000
     18 C18          2.6080    -2.0410     0.3610 ca         1 YM5      -0.093300
     19 C19          3.5780    -2.5370     1.4000 c3         1 YM5       0.210900
     20 O20          4.8380    -2.7630     0.8220 oh         1 YM5      -0.657000
     21 C21          1.2460    -2.0670     0.6490 ca         1 YM5      -0.112000
     22 C22         -2.1330    -0.5900    -0.0650 ca         1 YM5      -0.213800
     23 C23         -1.2960     2.9600    -0.9490 c6         1 YM5       0.168800
     24 C24          0.0460     3.4870    -1.4230 c6         1 YM5       0.144600
     25 O25          1.0280     3.4340    -0.4140 os         1 YM5      -0.430000
     26 H011         4.2690     2.5140     1.3100 hn         1 YM5       0.392500
     27 H012         3.9220     1.6500    -0.0070 hn         1 YM5       0.392500
     28 H021         2.2630     1.1170     1.6050 h1         1 YM5       0.036200
     29 H022         2.0450     2.8380     1.8800 h1         1 YM5       0.036200
     30 H03          1.5470     1.4770    -0.7950 h1         1 YM5       0.051700
     31 H041         0.0700     0.5200     0.8990 h1         1 YM5       0.056700
     32 H042        -0.4060     2.1190     1.4510 h1         1 YM5       0.056700
     33 H231        -1.9940     2.9650    -1.7840 h1         1 YM5       0.061700
     34 H232        -1.7080     3.6150    -0.1700 h1         1 YM5       0.061700
     35 H15          0.0220    -0.6710    -2.1800 ha         1 YM5       0.127000
     36 H21          0.9110    -2.4630     1.6020 ha         1 YM5       0.109000
     37 H16          2.4280    -0.6270    -2.7100 ha         1 YM5       0.117000
     38 H17          4.0810    -1.4770    -1.1020 ha         1 YM5       0.130000
     39 H191         3.6340    -1.7910     2.2040 h1         1 YM5       0.024200
     40 H192         3.1720    -3.4490     1.8570 h1         1 YM5       0.024200
     41 H20          5.4610    -2.9540     1.5290 ho         1 YM5       0.446000
     42 H241         0.3670     2.9120    -2.3040 h1         1 YM5       0.052200
     43 H242        -0.0570     4.5310    -1.7250 h1         1 YM5       0.052200
     44 H11         -3.8570    -3.1760     0.7260 hn         1 YM5       0.365000
     45 H08         -5.4500     1.1260    -0.4860 h5         1 YM5       0.047100
     46 H12         -1.4190    -3.7410     0.6070 h4         1 YM5       0.221000
@<TRIPOS>BOND
     1     1     2 1   
     2     1    26 1   
     3     1    27 1   
     4     2     3 1   
     5     2    28 1   
     6     2    29 1   
     7     3     4 1   
     8     3    25 1   
     9     3    30 1   
    10     4     5 1   
    11     4    31 1   
    12     4    32 1   
    13     5     6 1   
    14     5    23 1   
    15     6     7 ar  
    16     6    22 ar  
    17     7     8 ar  
    18     8     9 ar  
    19     8    45 1   
    20     9    10 ar  
    21    10    11 1   
    22    10    22 ar  
    23    11    12 1   
    24    11    44 1   
    25    12    13 2   
    26    12    46 1   
    27    13    14 1   
    28    13    22 1   
    29    14    15 ar  
    30    14    21 ar  
    31    15    16 ar  
    32    15    35 1   
    33    16    17 ar  
    34    16    37 1   
    35    17    18 ar  
    36    17    38 1   
    37    18    19 1   
    38    18    21 ar  
    39    19    20 1   
    40    19    39 1   
    41    19    40 1   
    42    20    41 1   
    43    21    36 1   
    44    23    24 1   
    45    23    33 1   
    46    23    34 1   
    47    24    25 1   
    48    24    42 1   
    49    24    43 1   
@<TRIPOS>SUBSTRUCTURE
     1 YM5         1 TEMP              0 ****  ****    0 ROOT
