@<TRIPOS>MOLECULE
YM6
   37    40     1     0     0
SMALL
No Charge or Current Charge


@<TRIPOS>ATOM
      1 N1           0.0090     2.7000    -0.6830 nb         1 YM6      -0.289000
      2 C2           1.1860     3.3290    -0.9160 ca         1 YM6       0.190900
      3 N3           2.4280     2.8140    -0.7700 nb         1 YM6      -0.232000
      4 C4           2.4680     1.5370    -0.3630 ca         1 YM6       0.196500
      5 C5           1.3150     0.7860    -0.1080 cp         1 YM6      -0.239000
      6 C6           0.0610     1.4140    -0.2670 ca         1 YM6       0.432900
      7 NAA         -4.3670    -2.2420    -1.1330 n8         1 YM6      -0.992200
      8 CAB          1.7490    -2.9110     0.8470 ca         1 YM6       0.305900
      9 CAD          1.0010    -1.7500     0.5450 ca         1 YM6      -0.124000
     10 CAE          3.7910    -1.8050     0.5730 ca         1 YM6       0.330900
     11 CAG         -2.6610    -0.5100     1.6170 c6         1 YM6       0.147600
     12 CAH         -1.4840     0.5000     1.4670 c6         1 YM6       0.170800
     13 CAI         -2.3980     1.1620    -0.7600 c6         1 YM6       0.177800
     14 NAJ          3.1140    -2.9480     0.8670 nb         1 YM6      -0.648000
     15 NAM          3.5310     0.6600    -0.1030 na         1 YM6      -0.315300
     16 OAN         -3.8170    -0.0730     0.8570 os         1 YM6      -0.443000
     17 CAP          3.0950    -0.6230     0.2730 ca         1 YM6      -0.081200
     18 CAQ          1.7120    -0.5680     0.2680 cp         1 YM6      -0.014000
     19 CAT         -3.5590     0.1360    -0.5640 c6         1 YM6       0.157300
     20 NAU         -1.1740     0.8020     0.0330 nh         1 YM6      -0.765300
     21 H2           1.1260     4.3640    -1.2490 h5         1 YM6       0.050100
     22 HNAA        -4.0360    -3.1500    -1.4800 hn         1 YM6       0.396500
     23 HNAB        -4.5260    -2.4040    -0.1310 hn         1 YM6       0.396500
     24 HAB          1.2400    -3.8470     1.0710 h4         1 YM6       0.021100
     25 HAD         -0.0820    -1.7850     0.5150 ha         1 YM6       0.125000
     26 HAE          4.8800    -1.8490     0.5720 h4         1 YM6       0.024100
     27 HAF         -2.3480    -1.6640    -0.8960 h1         1 YM6       0.038200
     28 HAFA        -3.1370    -1.0440    -2.3520 h1         1 YM6       0.038200
     29 HAG         -2.3510    -1.5080     1.2820 h1         1 YM6       0.050700
     30 HAGA        -2.9430    -0.5900     2.6760 h1         1 YM6       0.050700
     31 HAH         -1.7510     1.4290     1.9920 h1         1 YM6       0.060200
     32 HAHA        -0.6010     0.0880     1.9770 h1         1 YM6       0.060200
     33 HAI         -2.1570     1.2180    -1.8320 h1         1 YM6       0.067700
     34 HAIA        -2.7600     2.1560    -0.4590 h1         1 YM6       0.067700
     35 HAT         -4.4660     0.5610    -1.0170 h1         1 YM6       0.092700
     36 HNAM         4.5050     0.9310    -0.1900 hn         1 YM6       0.371000
     37 CAF         -3.2840    -1.2340    -1.2800 c3         1 YM6       0.122800
@<TRIPOS>BOND
     1     1     2 ar  
     2     1     6 ar  
     3     2     3 ar  
     4     2    21 1   
     5     3     4 ar  
     6     4     5 ar  
     7     4    15 1   
     8     5     6 ar  
     9     5    18 1   
    10     6    20 1   
    11     7    22 1   
    12     7    23 1   
    13     7    37 1   
    14     8     9 ar  
    15     8    14 ar  
    16     8    24 1   
    17     9    18 ar  
    18     9    25 1   
    19    10    14 ar  
    20    10    17 ar  
    21    10    26 1   
    22    11    12 1   
    23    11    16 1   
    24    11    29 1   
    25    11    30 1   
    26    12    20 1   
    27    12    31 1   
    28    12    32 1   
    29    13    19 1   
    30    13    20 1   
    31    13    33 1   
    32    13    34 1   
    33    15    17 1   
    34    15    36 1   
    35    16    19 1   
    36    17    18 ar  
    37    19    35 1   
    38    19    37 1   
    39    27    37 1   
    40    28    37 1   
@<TRIPOS>SUBSTRUCTURE
     1 YM6         1 TEMP              0 ****  ****    0 ROOT
