@<TRIPOS>MOLECULE
YM6
   37    40     1     0     0
SMALL
bcc


@<TRIPOS>ATOM
      1 N1          -0.0650     2.3690    -1.0670 nb         1 YM6      -0.815000
      2 C2           1.0850     2.9250    -1.4200 ca         1 YM6       0.716900
      3 N3           2.3070     2.5120    -1.1350 nb         1 YM6      -0.758000
      4 C4           2.3200     1.3540    -0.4840 ca         1 YM6       0.524800
      5 C5           1.1850     0.6270    -0.0770 cp         1 YM6      -0.369600
      6 C6          -0.0530     1.2450    -0.3450 ca         1 YM6       0.761200
      7 NAA         -4.4470    -1.8460    -1.3260 n8         1 YM6      -0.881800
      8 CAB          2.0010    -2.8260     1.2780 ca         1 YM6       0.371200
      9 CAD          1.1290    -1.8240     0.8910 ca         1 YM6      -0.207300
     10 CAE          3.8740    -1.6010     0.8000 ca         1 YM6       0.396200
     11 CAG         -2.5150    -0.7660     1.4850 c6         1 YM6       0.124400
     12 CAH         -1.4180     0.2770     1.4410 c6         1 YM6       0.170800
     13 CAI         -2.4820     1.2970    -0.4500 c6         1 YM6       0.177800
     14 NAJ          3.3330    -2.7210     1.2470 nb         1 YM6      -0.648000
     15 NAM          3.4410     0.6640    -0.1650 na         1 YM6      -0.265000
     16 OAN         -3.7170    -0.2670     0.9410 os         1 YM6      -0.396600
     17 CAP          3.0820    -0.5430     0.3800 ca         1 YM6      -0.146500
     18 CAQ          1.6750    -0.6220     0.4430 cp         1 YM6      -0.014000
     19 CAT         -3.5790     0.2390    -0.3780 c6         1 YM6       0.134100
     20 NAU         -1.2440     0.7450     0.0730 nh         1 YM6      -0.765300
     21 H2           1.0100     3.8390    -1.9990 h5         1 YM6       0.050100
     22 HNAA        -4.3360    -2.5230    -2.0690 hn         1 YM6       0.341300
     23 HNAB        -4.3680    -2.3700    -0.4640 hn         1 YM6       0.341300
     24 HAB          1.6040    -3.7710     1.6310 h4         1 YM6       0.021100
     25 HAD          0.0650    -2.0070     0.9260 ha         1 YM6       0.143000
     26 HAE          4.9570    -1.5410     0.7630 h4         1 YM6       0.024100
     27 HAF         -2.3680    -1.2950    -1.3170 h1         1 YM6       0.038200
     28 HAFA        -3.4120    -0.3960    -2.3930 h1         1 YM6       0.038200
     29 HAG         -2.1880    -1.6770     0.9650 h1         1 YM6       0.050700
     30 HAGA        -2.7220    -1.0380     2.5210 h1         1 YM6       0.050700
     31 HAH         -1.6950     1.1290     2.0750 h1         1 YM6       0.060200
     32 HAHA        -0.4950    -0.1280     1.8470 h1         1 YM6       0.060200
     33 HAI         -2.3450     1.6070    -1.4840 h1         1 YM6       0.067700
     34 HAIA        -2.7810     2.1860     0.1200 h1         1 YM6       0.067700
     35 HAT         -4.5320     0.7290    -0.5980 h1         1 YM6       0.092700
     36 HNAM         4.3800     0.9650    -0.3720 hn         1 YM6       0.320700
     37 CAF         -3.3760    -0.8670    -1.4070 c3         1 YM6       0.122800
@<TRIPOS>BOND
     1     1     2 ar  
     2     1     6 ar  
     3     2     3 ar  
     4     2    21 1   
     5     3     4 ar  
     6     4     5 ar  
     7     4    15 1   
     8     5     6 ar  
     9     5    18 1   
    10     6    20 1   
    11     7    22 1   
    12     7    23 1   
    13     7    37 1   
    14     8     9 ar  
    15     8    14 ar  
    16     8    24 1   
    17     9    18 ar  
    18     9    25 1   
    19    10    14 ar  
    20    10    17 ar  
    21    10    26 1   
    22    11    12 1   
    23    11    16 1   
    24    11    29 1   
    25    11    30 1   
    26    12    20 1   
    27    12    31 1   
    28    12    32 1   
    29    13    19 1   
    30    13    20 1   
    31    13    33 1   
    32    13    34 1   
    33    15    17 1   
    34    15    36 1   
    35    16    19 1   
    36    17    18 ar  
    37    19    35 1   
    38    19    37 1   
    39    27    37 1   
    40    28    37 1   
@<TRIPOS>SUBSTRUCTURE
     1 YM6         1 TEMP              0 ****  ****    0 ROOT
