@<TRIPOS>MOLECULE
YM7
   41    43     1     0     0
SMALL
bcc


@<TRIPOS>ATOM
      1 CAI         -5.3710    -1.5430     0.6180 c6         1 YM7      -0.111900
      2 CAG         -6.8850    -1.4870     0.4320 c6         1 YM7       0.148800
      3 NAP         -7.3050    -0.9260    -0.8420 n7         1 YM7      -0.786200
      4 CAH         -6.7020     0.3770    -1.0750 c6         1 YM7       0.148800
      5 CAJ         -5.1800     0.3950    -0.9470 c6         1 YM7      -0.111900
      6 CAW         -4.7360    -0.1710     0.4020 c6         1 YM7      -0.076700
      7 CAK         -3.2220    -0.2740     0.5220 c3         1 YM7       0.232800
      8 NAQ         -2.5960     1.0260     0.4560 nu         1 YM7      -0.871900
      9 C6          -1.2720     1.2260     0.4040 ca         1 YM7       0.734200
     10 C5          -0.3510     0.1780     0.2970 ca         1 YM7      -0.509600
     11 N1          -0.8530     2.5060     0.4520 nb         1 YM7      -0.803000
     12 C2           0.4440     2.7000     0.3840 ca         1 YM7       0.715900
     13 N3           1.4050     1.7940     0.2710 nb         1 YM7      -0.748000
     14 C4           0.9900     0.5320     0.2280 ca         1 YM7       0.726200
     15 NAR          1.9070    -0.4950     0.1140 nu         1 YM7      -0.841600
     16 CAT          3.2620    -0.4890    -0.0020 ca         1 YM7       0.587900
     17 CAE          3.9060    -1.7510    -0.1110 ca         1 YM7       0.230900
     18 NAN          5.1990    -1.8520    -0.2290 nb         1 YM7      -0.573000
     19 CAS          5.9030    -0.7120    -0.2420 ca         1 YM7       0.312000
     20 CAB          7.3220    -0.8120    -0.3710 cg         1 YM7       0.144800
     21 NAA          8.4670    -0.8780    -0.4690 n1         1 YM7      -0.346800
     22 CAD          5.2810     0.5190    -0.1360 ca         1 YM7       0.380900
     23 NAO          3.9670     0.6300    -0.0170 nb         1 YM7      -0.652000
     24 HAI1        -5.1360    -1.9180     1.6190 hc         1 YM7       0.047200
     25 HAI2        -4.9430    -2.2590    -0.0940 hc         1 YM7       0.047200
     26 HAG1        -7.3120    -2.4870     0.5340 h1         1 YM7       0.055200
     27 HAG2        -7.3220    -0.8790     1.2320 h1         1 YM7       0.055200
     28 HAW         -5.0990     0.4970     1.1960 hc         1 YM7       0.056700
     29 HAP         -7.0220    -1.5540    -1.5850 hn         1 YM7       0.348800
     30 HAH1        -6.9990     0.7280    -2.0650 h1         1 YM7       0.055200
     31 HAH2        -7.1300     1.0830    -0.3540 h1         1 YM7       0.055200
     32 HAJ1        -4.7370    -0.2050    -1.7510 hc         1 YM7       0.047200
     33 HAJ2        -4.8180     1.4170    -1.0860 hc         1 YM7       0.047200
     34 HAK1        -2.9590    -0.7770     1.4600 h1         1 YM7       0.043200
     35 HAK2        -2.8450    -0.9020    -0.2930 h1         1 YM7       0.043200
     36 HAQ         -3.1620     1.8420     0.6310 hn         1 YM7       0.452800
     37 H5          -0.6600    -0.8580     0.2710 ha         1 YM7       0.145000
     38 H2           0.7740     3.7340     0.4250 h5         1 YM7       0.051100
     39 HAR          1.4940    -1.4160     0.1020 hn         1 YM7       0.447800
     40 HAE          3.3270    -2.6690    -0.0980 h4         1 YM7       0.031100
     41 HAD          5.8560     1.4370    -0.1490 h4         1 YM7       0.044100
@<TRIPOS>BOND
     1     1     2 1   
     2     1     6 1   
     3     1    24 1   
     4     1    25 1   
     5     2     3 1   
     6     2    26 1   
     7     2    27 1   
     8     3     4 1   
     9     3    29 1   
    10     4     5 1   
    11     4    30 1   
    12     4    31 1   
    13     5     6 1   
    14     5    32 1   
    15     5    33 1   
    16     6     7 1   
    17     6    28 1   
    18     7     8 1   
    19     7    34 1   
    20     7    35 1   
    21     8     9 1   
    22     8    36 1   
    23     9    10 ar  
    24     9    11 ar  
    25    10    14 ar  
    26    10    37 1   
    27    11    12 ar  
    28    12    13 ar  
    29    12    38 1   
    30    13    14 ar  
    31    14    15 1   
    32    15    16 1   
    33    15    39 1   
    34    16    17 ar  
    35    16    23 ar  
    36    17    18 ar  
    37    17    40 1   
    38    18    19 ar  
    39    19    20 1   
    40    19    22 ar  
    41    20    21 3   
    42    22    23 ar  
    43    22    41 1   
@<TRIPOS>SUBSTRUCTURE
     1 YM7         1 TEMP              0 ****  ****    0 ROOT
