@<TRIPOS>MOLECULE
YM7
   41    43     1     0     0
SMALL
No Charge or Current Charge


@<TRIPOS>ATOM
      1 CAI         -5.4960    -1.6220     0.4740 c6         1 YM7      -0.111900
      2 CAG         -7.0380    -1.4870     0.4770 c6         1 YM7       0.148800
      3 NAP         -7.5110    -0.7980    -0.7470 n7         1 YM7      -0.841400
      4 CAH         -6.9170     0.5520    -0.9060 c6         1 YM7       0.148800
      5 CAJ         -5.3710     0.4760    -0.9470 c6         1 YM7      -0.111900
      6 CAW         -4.8050    -0.2390     0.3150 c6         1 YM7      -0.076700
      7 CAK         -3.2550    -0.3860     0.2780 c3         1 YM7       0.232800
      8 NAQ         -2.5770     0.9150     0.3610 nu         1 YM7      -0.927100
      9 C6          -1.2170     1.1580     0.3530 ca         1 YM7       0.405900
     10 C5          -0.2730     0.1280     0.2980 ca         1 YM7      -0.361000
     11 N1          -0.8610     2.4480     0.4060 nb         1 YM7      -0.277000
     12 C2           0.4630     2.6980     0.4020 ca         1 YM7       0.189900
     13 N3           1.4510     1.7840     0.3520 nb         1 YM7      -0.222000
     14 C4           1.0750     0.4930     0.2920 ca         1 YM7       0.397900
     15 NAR          2.0340    -0.5130     0.2560 nu         1 YM7      -0.896800
     16 CAT          3.4250    -0.5650     0.1120 ca         1 YM7       0.587900
     17 CAE          4.1670    -1.7770     0.3030 ca         1 YM7       0.230900
     18 NAN          5.5200    -1.8500     0.1500 nb         1 YM7      -0.573000
     19 CAS          6.1250    -0.6780    -0.2060 ca         1 YM7       0.312000
     20 CAB          7.5540    -0.6790    -0.3870 cg         1 YM7       0.234000
     21 NAA          8.7150    -0.6690    -0.5350 n1         1 YM7      -0.436000
     22 CAD          5.3860     0.5200    -0.4020 ca         1 YM7       0.380900
     23 NAO          4.0320     0.5850    -0.2480 nb         1 YM7      -0.652000
     24 HAI1        -5.1710    -2.1000     1.4090 hc         1 YM7       0.047200
     25 HAI2        -5.1880    -2.2920    -0.3400 hc         1 YM7       0.047200
     26 HAG1        -7.4960    -2.4860     0.5420 h1         1 YM7       0.055200
     27 HAG2        -7.3560    -0.9200     1.3670 h1         1 YM7       0.055200
     28 HAW         -5.0440     0.3640     1.2030 hc         1 YM7       0.056700
     29 HAP         -7.2380    -1.3650    -1.5590 hn         1 YM7       0.404000
     30 HAH1        -7.2890     1.0140    -1.8330 h1         1 YM7       0.055200
     31 HAH2        -7.2310     1.1940    -0.0690 h1         1 YM7       0.055200
     32 HAJ1        -5.0550    -0.0580    -1.8540 hc         1 YM7       0.047200
     33 HAJ2        -4.9640     1.4920    -1.0280 hc         1 YM7       0.047200
     34 HAK1        -2.9440    -1.0120     1.1260 h1         1 YM7       0.043200
     35 HAK2        -2.9680    -0.9060    -0.6460 h1         1 YM7       0.043200
     36 HAQ         -3.1630     1.7490     0.3950 hn         1 YM7       0.508000
     37 H5          -0.5740    -0.9120     0.2590 ha         1 YM7       0.127000
     38 H2           0.7650     3.7430     0.4470 h5         1 YM7       0.051100
     39 HAR          1.6260    -1.4380     0.3660 hn         1 YM7       0.503000
     40 HAE          3.6630    -2.7000     0.5850 h4         1 YM7       0.031100
     41 HAD          5.8860     1.4440    -0.6890 h4         1 YM7       0.044100
@<TRIPOS>BOND
     1     1     2 1   
     2     1     6 1   
     3     1    24 1   
     4     1    25 1   
     5     2     3 1   
     6     2    26 1   
     7     2    27 1   
     8     3     4 1   
     9     3    29 1   
    10     4     5 1   
    11     4    30 1   
    12     4    31 1   
    13     5     6 1   
    14     5    32 1   
    15     5    33 1   
    16     6     7 1   
    17     6    28 1   
    18     7     8 1   
    19     7    34 1   
    20     7    35 1   
    21     8     9 1   
    22     8    36 1   
    23     9    10 ar  
    24     9    11 ar  
    25    10    14 ar  
    26    10    37 1   
    27    11    12 ar  
    28    12    13 ar  
    29    12    38 1   
    30    13    14 ar  
    31    14    15 1   
    32    15    16 1   
    33    15    39 1   
    34    16    17 ar  
    35    16    23 ar  
    36    17    18 ar  
    37    17    40 1   
    38    18    19 ar  
    39    19    20 1   
    40    19    22 ar  
    41    20    21 3   
    42    22    23 ar  
    43    22    41 1   
@<TRIPOS>SUBSTRUCTURE
     1 YM7         1 TEMP              0 ****  ****    0 ROOT
