@<TRIPOS>MOLECULE
YM8
   46    48     1     0     0
SMALL
bcc


@<TRIPOS>ATOM
      1 CAA         -1.7940     2.1760     2.9310 c3         1 YM8      -0.096100
      2 CAB         -3.7390     2.8420    -1.4770 c3         1 YM8       0.152100
      3 CAC         -1.4110     2.2920    -1.5550 c3         1 YM8       0.152100
      4 NAD         -6.0230    -0.3760     0.7000 n1         1 YM8      -0.371800
      5 CAG          5.9950    -1.7200     0.1510 ca         1 YM8      -0.095000
      6 CAH          6.0530    -0.3180     0.2950 ca         1 YM8      -0.129000
      7 CAI          4.8240    -2.3500    -0.1590 ca         1 YM8      -0.129000
      8 CAJ         -2.2740    -2.2940    -1.3090 ca         1 YM8       0.187900
      9 CAK          2.4740     0.5190    -0.3990 ca         1 YM8       0.466200
     10 CAL          2.4070    -2.1880    -0.6480 ca         1 YM8      -0.283300
     11 CAM         -2.4640     2.7420     0.5650 c3         1 YM8       0.146800
     12 NAN         -3.4820    -1.9980    -0.9150 nb         1 YM8      -0.553000
     13 NAO          1.3430    -0.0510    -0.7060 nb         1 YM8      -0.668000
     14 NAP         -1.3040    -0.6710     0.1400 nb         1 YM8      -0.771000
     15 OAR         -2.7250     0.5480     1.4540 os         1 YM8      -0.431100
     16 CAS          4.9210     0.4260     0.1230 ca         1 YM8       0.061400
     17 CAT         -3.6360    -1.0300    -0.0110 ca         1 YM8       0.291000
     18 CAU         -1.1510    -1.6130    -0.7720 ca         1 YM8       0.634900
     19 CAV          1.3040    -1.3900    -0.8190 ca         1 YM8       0.666200
     20 CAW         -2.5250    -0.3550     0.5110 ca         1 YM8       0.667300
     21 CAX          3.6440    -1.5930    -0.3430 ca         1 YM8       0.022000
     22 CAY          3.6840    -0.1830    -0.1990 ca         1 YM8      -0.181300
     23 CAZ         -1.8570     1.7020     1.4970 c3         1 YM8       0.155100
     24 NBA         -2.6290     2.2340    -0.7780 n3         1 YM8      -0.734600
     25 HAA         -1.1460     3.0490     2.9980 hc         1 YM8       0.049700
     26 HAAA        -2.7790     2.4580     3.3050 hc         1 YM8       0.049700
     27 HAAB        -1.3820     1.4060     3.5830 hc         1 YM8       0.049700
     28 HAB         -3.6030     3.9170    -1.6710 h1         1 YM8       0.034700
     29 HABA        -3.8830     2.3500    -2.4400 h1         1 YM8       0.034700
     30 HABB        -4.6570     2.7180    -0.9020 h1         1 YM8       0.034700
     31 HAC         -0.6050     1.7490    -1.0610 h1         1 YM8       0.034700
     32 HACA        -1.5710     1.8160    -2.5240 h1         1 YM8       0.034700
     33 HACB        -1.0710     3.3230    -1.7410 h1         1 YM8       0.034700
     34 HAG          6.9010    -2.2950     0.2940 ha         1 YM8       0.140000
     35 HAH          6.9920     0.1590     0.5420 ha         1 YM8       0.152000
     36 HAI          4.7860    -3.4260    -0.2650 ha         1 YM8       0.141000
     37 HAJ         -2.1520    -3.0730    -2.0520 h4         1 YM8       0.031100
     38 HAK          2.4550     1.5990    -0.3150 h4         1 YM8       0.034100
     39 HAL          2.3330    -3.2640    -0.7390 ha         1 YM8       0.145000
     40 HAM         -3.4440     3.0180     0.9630 h1         1 YM8       0.043700
     41 HAMA        -1.8430     3.6530     0.6010 h1         1 YM8       0.043700
     42 HNAQ         0.1540    -2.8410    -1.6920 hn         1 YM8       0.453800
     43 HAZ         -0.8600     1.4100     1.1610 h1         1 YM8       0.082700
     44 NAQ          0.0900    -1.9720    -1.1830 nu         1 YM8      -0.854600
     45 CAF         -4.9540    -0.6700     0.3830 cg         1 YM8       0.171800
     46 CL           5.0070     2.1450     0.3040 cl         1 YM8      -0.100400
@<TRIPOS>BOND
     1     1    23 1   
     2     1    25 1   
     3     1    26 1   
     4     1    27 1   
     5     2    24 1   
     6     2    28 1   
     7     2    29 1   
     8     2    30 1   
     9     3    24 1   
    10     3    31 1   
    11     3    32 1   
    12     3    33 1   
    13     4    45 3   
    14     5     6 ar  
    15     5     7 ar  
    16     5    34 1   
    17     6    16 ar  
    18     6    35 1   
    19     7    21 ar  
    20     7    36 1   
    21     8    12 ar  
    22     8    18 ar  
    23     8    37 1   
    24     9    13 ar  
    25     9    22 ar  
    26     9    38 1   
    27    10    19 ar  
    28    10    21 ar  
    29    10    39 1   
    30    11    23 1   
    31    11    24 1   
    32    11    40 1   
    33    11    41 1   
    34    12    17 ar  
    35    13    19 ar  
    36    14    18 ar  
    37    14    20 ar  
    38    15    20 1   
    39    15    23 1   
    40    16    22 ar  
    41    16    46 1   
    42    17    20 ar  
    43    17    45 1   
    44    18    44 1   
    45    19    44 1   
    46    21    22 ar  
    47    23    43 1   
    48    42    44 1   
@<TRIPOS>SUBSTRUCTURE
     1 YM8         1 TEMP              0 ****  ****    0 ROOT
