@<TRIPOS>MOLECULE
YM8
   46    48     1     0     0
SMALL
No Charge or Current Charge


@<TRIPOS>ATOM
      1 CAA         -2.2050     2.2470     3.1340 c3         1 YM8      -0.096100
      2 CAB         -3.7560     2.9850    -1.5940 c3         1 YM8       0.152100
      3 CAC         -1.4140     2.3000    -1.3390 c3         1 YM8       0.152100
      4 NAD         -6.0650    -0.0660     0.3320 n1         1 YM8      -0.461000
      5 CAG          6.2270    -1.7930     0.0320 ca         1 YM8      -0.077000
      6 CAH          6.2930    -0.3920    -0.0680 ca         1 YM8      -0.111000
      7 CAI          4.9890    -2.4460    -0.0950 ca         1 YM8      -0.111000
      8 CAJ         -2.1910    -2.1430    -1.4390 ca         1 YM8       0.187900
      9 CAK          2.6820     0.4100    -0.6560 ca         1 YM8       0.400900
     10 CAL          2.5720    -2.3200    -0.4510 ca         1 YM8      -0.200000
     11 CAM         -2.8340     2.6590     0.6730 c3         1 YM8       0.146800
     12 NAN         -3.4770    -1.7540    -1.2190 nb         1 YM8      -0.553000
     13 NAO          1.4800    -0.1970    -0.7830 nb         1 YM8      -0.668000
     14 NAP         -1.2580    -0.8400     0.3950 nb         1 YM8      -0.771000
     15 OAR         -2.7410     0.4310     1.6750 os         1 YM8      -0.454300
     16 CAS          5.1270     0.3610    -0.2950 ca         1 YM8       0.153000
     17 CAT         -3.6360    -0.8750    -0.1810 ca         1 YM8       0.291000
     18 CAU         -1.0940    -1.6740    -0.6470 ca         1 YM8       0.634900
     19 CAV          1.4370    -1.5280    -0.6600 ca         1 YM8       0.600900
     20 CAW         -2.5320    -0.4160     0.6080 ca         1 YM8       0.667300
     21 CAX          3.8220    -1.6960    -0.3210 ca         1 YM8       0.022000
     22 CAY          3.8830    -0.2930    -0.4220 ca         1 YM8      -0.116000
     23 CAZ         -2.1040     1.7250     1.6890 c3         1 YM8       0.178300
     24 NBA         -2.7790     2.2480    -0.7610 n3         1 YM8      -0.734600
     25 HAA         -1.7380     3.2360     3.2190 hc         1 YM8       0.049700
     26 HAAA        -3.2530     2.3320     3.4470 hc         1 YM8       0.049700
     27 HAAB        -1.6900     1.5680     3.8240 hc         1 YM8       0.049700
     28 HAB         -3.5230     4.0580    -1.6160 h1         1 YM8       0.034700
     29 HABA        -3.7470     2.6100    -2.6260 h1         1 YM8       0.034700
     30 HABB        -4.7740     2.8610    -1.2010 h1         1 YM8       0.034700
     31 HAC         -0.7120     1.6810    -0.7680 h1         1 YM8       0.034700
     32 HACA        -1.4170     1.9290    -2.3730 h1         1 YM8       0.034700
     33 HACB        -1.0320     3.3300    -1.3470 h1         1 YM8       0.034700
     34 HAG          7.1320    -2.3700     0.2070 ha         1 YM8       0.122000
     35 HAH          7.2510     0.1130     0.0310 ha         1 YM8       0.134000
     36 HAI          4.9400    -3.5300    -0.0170 ha         1 YM8       0.123000
     37 HAJ         -2.0290    -2.8430    -2.2570 h4         1 YM8       0.031100
     38 HAK          2.6680     1.4940    -0.7520 h4         1 YM8       0.034100
     39 HAL          2.4810    -3.4000    -0.3810 ha         1 YM8       0.127000
     40 HAM         -3.8840     2.7210     0.9910 h1         1 YM8       0.043700
     41 HAMA        -2.4190     3.6710     0.7770 h1         1 YM8       0.043700
     42 HNAQ         0.2620    -3.0460    -1.2210 hn         1 YM8       0.509000
     43 HAZ         -1.0400     1.6480     1.4280 h1         1 YM8       0.082700
     44 NAQ          0.2050    -2.1090    -0.8380 nu         1 YM8      -0.909800
     45 CAF         -4.9730    -0.4210     0.1050 cg         1 YM8       0.261000
     46 Cl           5.2690     2.1150    -0.4130 cl         1 YM8      -0.192000
@<TRIPOS>BOND
     1     1    23 1   
     2     1    25 1   
     3     1    26 1   
     4     1    27 1   
     5     2    24 1   
     6     2    28 1   
     7     2    29 1   
     8     2    30 1   
     9     3    24 1   
    10     3    31 1   
    11     3    32 1   
    12     3    33 1   
    13     4    45 3   
    14     5     6 ar  
    15     5     7 ar  
    16     5    34 1   
    17     6    16 ar  
    18     6    35 1   
    19     7    21 ar  
    20     7    36 1   
    21     8    12 ar  
    22     8    18 ar  
    23     8    37 1   
    24     9    13 ar  
    25     9    22 ar  
    26     9    38 1   
    27    10    19 ar  
    28    10    21 ar  
    29    10    39 1   
    30    11    23 1   
    31    11    24 1   
    32    11    40 1   
    33    11    41 1   
    34    12    17 ar  
    35    13    19 ar  
    36    14    18 ar  
    37    14    20 ar  
    38    15    20 1   
    39    15    23 1   
    40    16    22 ar  
    41    16    46 1   
    42    17    20 ar  
    43    17    45 1   
    44    18    44 1   
    45    19    44 1   
    46    21    22 ar  
    47    23    43 1   
    48    42    44 1   
@<TRIPOS>SUBSTRUCTURE
     1 YM8         1 TEMP              0 ****  ****    0 ROOT
