@<TRIPOS>MOLECULE
YM9
   30    32     1     0     0
SMALL
No Charge or Current Charge


@<TRIPOS>ATOM
      1 C10          8.8670   -16.5350   -17.6420 ca         1 YM9      -0.074000
      2 C11         10.0490   -18.6250   -18.5380 c          1 YM9       0.725600
      3 O12         10.7050   -18.6980   -17.5080 o          1 YM9      -0.722500
      4 C17          8.2310   -17.3220   -19.8170 ca         1 YM9      -0.035200
      5 C18          7.3200   -16.3120   -19.9500 ca         1 YM9       0.026400
      6 C20          7.1830   -17.4660   -21.7720 cc         1 YM9       0.384700
      7 C1           7.6920   -12.2000   -15.7360 ca         1 YM9      -0.090000
      8 C2           7.4360   -12.6940   -14.4430 ca         1 YM9      -0.130300
      9 C3           7.3550   -14.0860   -14.2480 ca         1 YM9       0.163000
     10 C4           7.5220   -14.9680   -15.3260 ca         1 YM9      -0.137000
     11 C5           7.7680   -14.4880   -16.6340 cp         1 YM9       0.046000
     12 C6           7.8580   -13.0800   -16.8220 ca         1 YM9       0.106000
     13 C7           7.9330   -15.4630   -17.7540 cp         1 YM9      -0.107000
     14 C8           7.1450   -15.3670   -18.9330 ca         1 YM9      -0.046000
     15 C9           9.0420   -17.4920   -18.6760 ca         1 YM9      -0.130600
     16 N19          6.6480   -16.3830   -21.1700 nd         1 YM9      -0.609100
     17 N21          8.1500   -18.0530   -20.9640 na         1 YM9      -0.285600
     18 O13         10.1730   -19.4250   -19.4560 o          1 YM9      -0.722500
     19 Cl16         8.2260   -12.3700   -18.3960 cl         1 YM9      -0.200000
     20 H25          9.4650   -16.6110   -16.7360 ha         1 YM9       0.131000
     21 H31          6.9220   -17.8570   -22.7480 h5         1 YM9       0.040800
     22 H22          7.7690   -11.1280   -15.9050 ha         1 YM9       0.118000
     23 H28          6.2730   -11.8610   -12.8070 hc         1 YM9       0.039700
     24 H29          8.0180   -11.9080   -12.5030 hc         1 YM9       0.039700
     25 H27          7.3400   -10.6860   -13.5880 hc         1 YM9       0.039700
     26 H23          7.4480   -16.0380   -15.1500 ha         1 YM9       0.147000
     27 H24          6.4070   -14.5760   -19.0450 ha         1 YM9       0.111000
     28 H30          8.6950   -18.8770   -21.1880 hn         1 YM9       0.393000
     29 C14          7.2570   -11.7340   -13.2730 c3         1 YM9      -0.032800
     30 F15          7.1150   -14.5880   -13.0160 f          1 YM9      -0.188000
@<TRIPOS>BOND
     1     1    13 ar  
     2     1    15 ar  
     3     1    20 1   
     4     2     3 1   
     5     2    15 1   
     6     2    18 1   
     7     4     5 ar  
     8     4    15 ar  
     9     4    17 1   
    10     5    14 ar  
    11     5    16 1   
    12     6    16 2   
    13     6    17 1   
    14     6    21 1   
    15     7     8 ar  
    16     7    12 ar  
    17     7    22 1   
    18     8     9 ar  
    19     8    29 1   
    20     9    10 ar  
    21     9    30 1   
    22    10    11 ar  
    23    10    26 1   
    24    11    12 ar  
    25    11    13 1   
    26    12    19 1   
    27    13    14 ar  
    28    14    27 1   
    29    17    28 1   
    30    23    29 1   
    31    24    29 1   
    32    25    29 1   
@<TRIPOS>SUBSTRUCTURE
     1 YM9         1 TEMP              0 ****  ****    0 ROOT
