@<TRIPOS>MOLECULE
YM9
   30    32     1     0     0
SMALL
abcg2


@<TRIPOS>ATOM
      1 C10          8.8710   -16.4670   -17.6760 ca         1 YM9      -0.074000
      2 C11         10.0640   -18.5640   -18.4980 c          1 YM9       0.725600
      3 O12         10.7930   -18.5430   -17.4920 o          1 YM9      -0.722500
      4 C17          8.2390   -17.3190   -19.7730 ca         1 YM9      -0.035200
      5 C18          7.2990   -16.2860   -19.9330 ca         1 YM9       0.026400
      6 C20          7.1670   -17.4910   -21.6740 cc         1 YM9       0.384700
      7 C1           7.7320   -12.2310   -15.7340 ca         1 YM9      -0.090000
      8 C2           7.4460   -12.7200   -14.4660 ca         1 YM9      -0.130300
      9 C3           7.3460   -14.0980   -14.3470 ca         1 YM9       0.163000
     10 C4           7.5020   -14.9590   -15.4100 ca         1 YM9      -0.137000
     11 C5           7.7780   -14.4670   -16.6860 cp         1 YM9       0.046000
     12 C6           7.8960   -13.0840   -16.8170 ca         1 YM9       0.106000
     13 C7           7.9360   -15.4230   -17.8040 cp         1 YM9      -0.107000
     14 C8           7.1410   -15.3260   -18.9380 ca         1 YM9      -0.046000
     15 C9           9.0530   -17.4390   -18.6460 ca         1 YM9      -0.130600
     16 N19          6.6420   -16.4260   -21.1350 nd         1 YM9      -0.609100
     17 N21          8.1240   -18.0660   -20.9100 na         1 YM9      -0.285600
     18 O13         10.0630   -19.4150   -19.4140 o          1 YM9      -0.722500
     19 CL16         8.3040   -12.3690   -18.3440 cl         1 YM9      -0.200000
     20 H25          9.4800   -16.5110   -16.7820 ha         1 YM9       0.131000
     21 H31          6.8890   -17.9020   -22.6330 h5         1 YM9       0.040800
     22 H22          7.8340   -11.1630   -15.8750 ha         1 YM9       0.118000
     23 H28          6.2590   -11.9210   -12.8600 hc         1 YM9       0.039700
     24 H29          7.9730   -12.0340   -12.4950 hc         1 YM9       0.039700
     25 H27          7.3870   -10.7750   -13.5770 hc         1 YM9       0.039700
     26 H23          7.3940   -16.0250   -15.2580 ha         1 YM9       0.147000
     27 H24          6.4020   -14.5420   -19.0440 ha         1 YM9       0.111000
     28 H30          8.6640   -18.8960   -21.0980 hn         1 YM9       0.393000
     29 C14          7.2570   -11.8160   -13.2870 c3         1 YM9      -0.032800
     30 F15          7.0740   -14.6140   -13.1370 f          1 YM9      -0.188000
@<TRIPOS>BOND
     1     1    13 ar  
     2     1    15 ar  
     3     1    20 1   
     4     2     3 1   
     5     2    15 1   
     6     2    18 1   
     7     4     5 ar  
     8     4    15 ar  
     9     4    17 1   
    10     5    14 ar  
    11     5    16 1   
    12     6    16 2   
    13     6    17 1   
    14     6    21 1   
    15     7     8 ar  
    16     7    12 ar  
    17     7    22 1   
    18     8     9 ar  
    19     8    29 1   
    20     9    10 ar  
    21     9    30 1   
    22    10    11 ar  
    23    10    26 1   
    24    11    12 ar  
    25    11    13 1   
    26    12    19 1   
    27    13    14 ar  
    28    14    27 1   
    29    17    28 1   
    30    23    29 1   
    31    24    29 1   
    32    25    29 1   
@<TRIPOS>SUBSTRUCTURE
     1 YM9         1 TEMP              0 ****  ****    0 ROOT
