@<TRIPOS>MOLECULE
YMA
   63    62     1     0     0
SMALL
No Charge or Current Charge


@<TRIPOS>ATOM
      1 O8           2.6720    15.2980     3.0480 o          1 YMA      -0.749000
      2 C2           3.0550    14.2310     3.5120 c          1 YMA       0.718000
      3 O7           3.1280    14.0210     4.7170 o          1 YMA      -0.749000
      4 C1           3.4990    13.0810     2.5250 c3         1 YMA       0.059800
      5 N1           2.4770    12.4540     1.6100 n3         1 YMA      -0.743600
      6 C10          3.0770    11.4350     0.6890 c3         1 YMA       0.189800
      7 C11          4.0170    11.9790    -0.4400 c3         1 YMA       0.178300
      8 N3           3.3750    12.3360    -1.7460 n3         1 YMA      -0.700100
      9 C14          2.2230    13.3000    -1.6060 c3         1 YMA       0.097300
     10 C15          1.2480    13.5470    -2.8140 c          1 YMA       0.602100
     11 N5           0.1420    14.3390    -2.5880 ns         1 YMA      -0.497900
     12 C16         -0.1120    15.1720    -1.4040 c3         1 YMA       0.116500
     13 C18          0.6500    16.5160    -1.4300 c3         1 YMA       0.080600
     14 S2           0.3600    17.5270    -2.9630 sh         1 YMA      -0.541800
     15 O6           1.3750    13.0350    -3.9200 o          1 YMA      -0.646600
     16 C12          4.3940    12.7880    -2.7600 c3         1 YMA       0.041800
     17 C13          5.5980    11.8320    -3.1080 c          1 YMA       0.718000
     18 O4           6.6840    12.0420    -2.5790 o          1 YMA      -0.749500
     19 O3           5.4160    10.9210    -3.9070 o          1 YMA      -0.749500
     20 C3           1.2850    11.9430     2.3500 c3         1 YMA       0.189800
     21 C4           0.0150    11.7400     1.4700 c3         1 YMA       0.178300
     22 N2          -1.2340    11.3910     2.2120 n3         1 YMA      -0.700100
     23 C5          -1.2030    10.0040     2.7950 c3         1 YMA       0.041800
     24 C6          -2.3930     9.5380     3.7150 c          1 YMA       0.718000
     25 O2          -2.3920     9.8710     4.8940 o          1 YMA      -0.749500
     26 O1          -3.2760     8.8450     3.2230 o          1 YMA      -0.749500
     27 C7          -2.4750    11.6650     1.4090 c3         1 YMA       0.097300
     28 C8          -2.7130    13.1470     0.9980 c          1 YMA       0.602100
     29 O5          -3.0970    13.4900    -0.1150 o          1 YMA      -0.646600
     30 N4          -2.4220    14.0530     1.9910 ns         1 YMA      -0.497900
     31 C9          -2.3800    15.5100     1.8400 c3         1 YMA       0.116500
     32 C17         -0.9910    16.0660     2.2180 c3         1 YMA       0.080600
     33 S1          -0.4240    15.5870     3.9210 sh         1 YMA      -0.541800
     34 H11          3.9520    12.2890     3.1360 h1         1 YMA       0.004700
     35 H12          4.3140    13.5050     1.9250 h1         1 YMA       0.004700
     36 H101         2.2950    10.8400     0.2000 h1         1 YMA       0.028450
     37 H102         3.6600    10.7250     1.2910 h1         1 YMA       0.028450
     38 H111         4.7520    11.1850    -0.6270 h1         1 YMA       0.031700
     39 H112         4.5870    12.8350    -0.0580 h1         1 YMA       0.031700
     40 H141         2.6060    14.2800    -1.2940 h1         1 YMA       0.053950
     41 H142         1.5620    12.9560    -0.8030 h1         1 YMA       0.053950
     42 HN5         -0.4670    14.4570    -3.3870 hn         1 YMA       0.351000
     43 H161         0.1440    14.6170    -0.4930 h1         1 YMA       0.058450
     44 H162        -1.1890    15.3820    -1.3640 h1         1 YMA       0.058450
     45 H181         1.7280    16.3260    -1.3470 h1         1 YMA       0.052700
     46 H182         0.3500    17.1130    -0.5590 h1         1 YMA       0.052700
     47 HS2          1.1650    18.5650    -2.6120 hs         1 YMA       0.265800
     48 H121         4.8290    13.7400    -2.4230 h1         1 YMA       0.011450
     49 H122         3.8980    13.0070    -3.7130 h1         1 YMA       0.011450
     50 H31          1.0050    12.6560     3.1360 h1         1 YMA       0.028450
     51 H32          1.5380    10.9990     2.8520 h1         1 YMA       0.028450
     52 H41          0.2140    10.9710     0.7130 h1         1 YMA       0.031700
     53 H42         -0.1340    12.6820     0.9270 h1         1 YMA       0.031700
     54 H51         -0.2920     9.8850     3.3970 h1         1 YMA       0.011450
     55 H52         -1.1240     9.2760     1.9760 h1         1 YMA       0.011450
     56 H71         -3.3610    11.3780     1.9880 h1         1 YMA       0.053950
     57 H72         -2.4750    11.0620     0.4910 h1         1 YMA       0.053950
     58 HN4         -2.0480    13.6500     2.8440 hn         1 YMA       0.351000
     59 H91         -3.1400    15.9520     2.4980 h1         1 YMA       0.058450
     60 H92         -2.6170    15.7940     0.8070 h1         1 YMA       0.058450
     61 H171        -1.0010    17.1610     2.1430 h1         1 YMA       0.052700
     62 H172        -0.2500    15.6870     1.5030 h1         1 YMA       0.052700
     63 HS1          0.9130    15.5850     3.6270 hs         1 YMA       0.265800
@<TRIPOS>BOND
     1     1     2 1   
     2     2     3 1   
     3     2     4 1   
     4     4     5 1   
     5     4    34 1   
     6     4    35 1   
     7     5     6 1   
     8     5    20 1   
     9     6     7 1   
    10     6    36 1   
    11     6    37 1   
    12     7     8 1   
    13     7    38 1   
    14     7    39 1   
    15     8     9 1   
    16     8    16 1   
    17     9    10 1   
    18     9    40 1   
    19     9    41 1   
    20    10    11 1   
    21    10    15 2   
    22    11    12 1   
    23    11    42 1   
    24    12    13 1   
    25    12    43 1   
    26    12    44 1   
    27    13    14 1   
    28    13    45 1   
    29    13    46 1   
    30    14    47 1   
    31    16    17 1   
    32    16    48 1   
    33    16    49 1   
    34    17    18 1   
    35    17    19 1   
    36    20    21 1   
    37    20    50 1   
    38    20    51 1   
    39    21    22 1   
    40    21    52 1   
    41    21    53 1   
    42    22    23 1   
    43    22    27 1   
    44    23    24 1   
    45    23    54 1   
    46    23    55 1   
    47    24    25 1   
    48    24    26 1   
    49    27    28 1   
    50    27    56 1   
    51    27    57 1   
    52    28    29 2   
    53    28    30 1   
    54    30    31 1   
    55    30    58 1   
    56    31    32 1   
    57    31    59 1   
    58    31    60 1   
    59    32    33 1   
    60    32    61 1   
    61    32    62 1   
    62    33    63 1   
@<TRIPOS>SUBSTRUCTURE
     1 YMA         1 TEMP              0 ****  ****    0 ROOT
