@<TRIPOS>MOLECULE
YMA
   63    62     1     0     0
SMALL
bcc


@<TRIPOS>ATOM
      1 O8           1.8270    15.1180     2.2460 o          1 YMA      -0.854300
      2 C2           2.7510    14.6830     2.9750 c          1 YMA       0.928600
      3 O7           3.2460    15.2560     3.9600 o          1 YMA      -0.854300
      4 C1           3.3770    13.3190     2.6210 c3         1 YMA       0.059800
      5 N1           2.6280    12.5110     1.6940 n3         1 YMA      -0.743600
      6 C10          3.4510    11.5240     1.0170 c3         1 YMA       0.189800
      7 C11          4.1920    12.0600    -0.2030 c3         1 YMA       0.178300
      8 N3           3.3380    12.2980    -1.3550 n3         1 YMA      -0.700100
      9 C14          2.5700    13.5150    -1.2460 c3         1 YMA       0.097300
     10 C15          1.2300    13.4340    -1.9620 c          1 YMA       0.669100
     11 N5           0.4120    14.5020    -1.8180 ns         1 YMA      -0.564900
     12 C16          0.6550    15.7180    -1.0740 c3         1 YMA       0.116500
     13 C18          1.4310    16.7800    -1.8400 c3         1 YMA       0.032700
     14 S2           0.5810    17.1440    -3.4130 sh         1 YMA      -0.493900
     15 O6           0.8800    12.4630    -2.6170 o          1 YMA      -0.646600
     16 C12          4.0830    12.2440    -2.5960 c3         1 YMA       0.041800
     17 C13          4.5830    10.8470    -3.0270 c          1 YMA       0.928600
     18 O4           5.4400    10.8620    -3.9350 o          1 YMA      -0.854800
     19 O3           4.0840     9.8460    -2.4820 o          1 YMA      -0.854800
     20 C3           1.3870    11.9830     2.2240 c3         1 YMA       0.189800
     21 C4           0.3420    11.9120     1.1170 c3         1 YMA       0.178300
     22 N2          -0.9710    11.4860     1.5560 n3         1 YMA      -0.700100
     23 C5          -1.0860    10.0920     1.9140 c3         1 YMA       0.041800
     24 C6          -2.2440     9.7860     2.8900 c          1 YMA       0.928600
     25 O2          -2.8110    10.7460     3.4530 o          1 YMA      -0.854800
     26 O1          -2.4860     8.5750     3.0560 o          1 YMA      -0.854800
     27 C7          -1.9840    11.9310     0.6260 c3         1 YMA       0.097300
     28 C8          -2.4550    13.3480     0.9290 c          1 YMA       0.669100
     29 O5          -2.6940    14.1670     0.0480 o          1 YMA      -0.646600
     30 N4          -2.6280    13.5750     2.2360 ns         1 YMA      -0.564900
     31 C9          -3.1420    14.8070     2.7710 c3         1 YMA       0.116500
     32 C17         -2.0830    15.8770     2.9990 c3         1 YMA       0.032700
     33 S1          -0.8090    15.3690     4.2020 sh         1 YMA      -0.493900
     34 H11          3.6040    12.7840     3.5590 h1         1 YMA       0.004700
     35 H12          4.3530    13.5370     2.1740 h1         1 YMA       0.004700
     36 H101         2.8240    10.6970     0.6770 h1         1 YMA       0.028450
     37 H102         4.1880    11.0800     1.7060 h1         1 YMA       0.028450
     38 H111         4.9190    11.2970    -0.4820 h1         1 YMA       0.031700
     39 H112         4.7820    12.9530     0.0680 h1         1 YMA       0.031700
     40 H141         3.1210    14.3940    -1.6230 h1         1 YMA       0.053950
     41 H142         2.3770    13.7110    -0.1890 h1         1 YMA       0.053950
     42 HN5         -0.4790    14.4250    -2.2840 hn         1 YMA       0.351000
     43 H161         1.1830    15.5020    -0.1440 h1         1 YMA       0.058450
     44 H162        -0.3180    16.1170    -0.7880 h1         1 YMA       0.058450
     45 H181         2.4500    16.4520    -2.0440 h1         1 YMA       0.052700
     46 H182         1.4800    17.6850    -1.2370 h1         1 YMA       0.052700
     47 HS2          1.2820    18.2360    -3.7330 hs         1 YMA       0.265800
     48 H121         4.9440    12.9350    -2.5850 h1         1 YMA       0.011450
     49 H122         3.4380    12.6040    -3.4030 h1         1 YMA       0.011450
     50 H31          1.0070    12.6530     2.9960 h1         1 YMA       0.028450
     51 H32          1.5330    11.0050     2.7090 h1         1 YMA       0.028450
     52 H41          0.7090    11.2980     0.2780 h1         1 YMA       0.031700
     53 H42          0.2480    12.9280     0.7260 h1         1 YMA       0.031700
     54 H51         -0.1670     9.7820     2.4190 h1         1 YMA       0.011450
     55 H52         -1.1700     9.4330     1.0350 h1         1 YMA       0.011450
     56 H71         -2.8630    11.2840     0.6930 h1         1 YMA       0.053950
     57 H72         -1.6510    11.8900    -0.4210 h1         1 YMA       0.053950
     58 HN4         -2.4400    12.7890     2.8510 hn         1 YMA       0.351000
     59 H91         -3.6420    14.5810     3.7130 h1         1 YMA       0.058450
     60 H92         -3.9020    15.2130     2.1000 h1         1 YMA       0.058450
     61 H171        -2.5670    16.7800     3.3740 h1         1 YMA       0.052700
     62 H172        -1.5890    16.1380     2.0640 h1         1 YMA       0.052700
     63 HS1          0.2440    15.3020     3.3560 hs         1 YMA       0.265800
@<TRIPOS>BOND
     1     1     2 1   
     2     2     3 1   
     3     2     4 1   
     4     4     5 1   
     5     4    34 1   
     6     4    35 1   
     7     5     6 1   
     8     5    20 1   
     9     6     7 1   
    10     6    36 1   
    11     6    37 1   
    12     7     8 1   
    13     7    38 1   
    14     7    39 1   
    15     8     9 1   
    16     8    16 1   
    17     9    10 1   
    18     9    40 1   
    19     9    41 1   
    20    10    11 1   
    21    10    15 2   
    22    11    12 1   
    23    11    42 1   
    24    12    13 1   
    25    12    43 1   
    26    12    44 1   
    27    13    14 1   
    28    13    45 1   
    29    13    46 1   
    30    14    47 1   
    31    16    17 1   
    32    16    48 1   
    33    16    49 1   
    34    17    18 1   
    35    17    19 1   
    36    20    21 1   
    37    20    50 1   
    38    20    51 1   
    39    21    22 1   
    40    21    52 1   
    41    21    53 1   
    42    22    23 1   
    43    22    27 1   
    44    23    24 1   
    45    23    54 1   
    46    23    55 1   
    47    24    25 1   
    48    24    26 1   
    49    27    28 1   
    50    27    56 1   
    51    27    57 1   
    52    28    29 2   
    53    28    30 1   
    54    30    31 1   
    55    30    58 1   
    56    31    32 1   
    57    31    59 1   
    58    31    60 1   
    59    32    33 1   
    60    32    61 1   
    61    32    62 1   
    62    33    63 1   
@<TRIPOS>SUBSTRUCTURE
     1 YMA         1 TEMP              0 ****  ****    0 ROOT
