@<TRIPOS>MOLECULE
YMB
   66    70     1     0     0
SMALL
abcg2


@<TRIPOS>ATOM
      1 C11        -21.7510   -11.8780     8.7140 ca         1 YMB       0.105200
      2 C14        -20.6170   -12.2930     6.1590 ca         1 YMB      -0.166300
      3 C10        -22.2530   -11.7200    10.0810 cc         1 YMB      -0.164400
      4 C12        -20.8670   -10.9490     8.1600 ca         1 YMB      -0.085000
      5 C13        -20.3140   -11.1590     6.9120 ca         1 YMB      -0.090000
      6 C15        -19.9870   -12.5260     4.8290 c3         1 YMB      -0.199100
      7 C01        -22.2650   -12.6190    16.0810 c3         1 YMB      -0.095100
      8 C02        -22.9330   -12.0870    14.8190 c3         1 YMB       0.188000
      9 C03        -22.4990   -12.7880    13.5470 ca         1 YMB      -0.132300
     10 C04        -22.5660   -12.1270    12.3120 ca         1 YMB      -0.056200
     11 C06        -22.8190   -10.6130    10.6780 cd         1 YMB      -0.045300
     12 C07        -23.3070    -9.2920    10.1240 c          1 YMB       0.720200
     13 C20        -21.5070   -13.1940     6.7200 ca         1 YMB       0.189000
     14 C22        -22.0680   -13.0140     7.9690 ca         1 YMB      -0.162000
     15 C23        -22.0990   -12.7060    11.1110 ca         1 YMB      -0.082800
     16 C24        -21.5770   -14.0050    11.1380 ca         1 YMB      -0.064000
     17 C25        -21.5470   -14.6810    12.3390 ca         1 YMB      -0.165000
     18 C26        -21.9970   -14.0760    13.5250 ca         1 YMB      -0.110000
     19 C28        -25.1550   -13.3050    15.1240 c5         1 YMB       0.069000
     20 C29        -26.5450   -12.7150    15.3650 c5         1 YMB       0.155300
     21 C30        -27.6570   -13.4680    14.6760 c3         1 YMB       0.165800
     22 C32        -29.5080   -13.1010    16.3110 cy         1 YMB       0.121300
     23 C33        -30.9000   -13.2950    15.6660 cy         1 YMB       0.138500
     24 C35        -30.1220   -13.5340    14.3620 cy         1 YMB       0.121300
     25 C37        -25.1650   -11.0390    14.6980 c          1 YMB       0.687100
     26 F21        -21.8160   -14.3080     6.0380 f          1 YMB      -0.186000
     27 N05        -22.9960   -10.8730    12.0070 na         1 YMB      -0.190700
     28 N27        -24.3780   -12.0990    14.9630 n          1 YMB      -0.445800
     29 N31        -28.9460   -12.9070    14.9700 nq         1 YMB      -0.696600
     30 N34        -31.7930   -12.1610    15.6070 n8         1 YMB      -0.987200
     31 O08        -23.2750    -9.1530     8.8920 o          1 YMB      -0.692000
     32 O09        -23.7130    -8.4830    10.9820 o          1 YMB      -0.692000
     33 O36        -26.4510   -11.3750    14.8560 os         1 YMB      -0.394100
     34 O38        -24.8290    -9.9230    14.3630 o          1 YMB      -0.527000
     35 S16        -21.0180   -11.9870     3.4480 s6         1 YMB       1.064000
     36 H121       -20.5900   -10.0720     8.7260 ha         1 YMB       0.138000
     37 H131       -19.6120   -10.4370     6.5120 ha         1 YMB       0.098000
     38 H171       -21.6710    -9.9940     4.5790 h1         1 YMB       0.104700
     39 H172       -20.1560    -9.7800     3.6550 h1         1 YMB       0.104700
     40 H173       -21.7220    -9.8490     2.8050 h1         1 YMB       0.104700
     41 H152       -19.7900   -13.5800     4.6220 h1         1 YMB       0.096200
     42 H151       -19.0460   -11.9830     4.7300 h1         1 YMB       0.096200
     43 H011       -22.5590   -12.0110    16.9360 hc         1 YMB       0.037367
     44 H013       -22.5310   -13.6530    16.2980 hc         1 YMB       0.037367
     45 H012       -21.1820   -12.5670    15.9820 hc         1 YMB       0.037367
     46 H021       -22.6510   -11.0350    14.7340 h1         1 YMB       0.085700
     47 H221       -22.7550   -13.7560     8.3560 ha         1 YMB       0.132000
     48 H241       -21.2000   -14.4720    10.2370 ha         1 YMB       0.109000
     49 H251       -21.1560   -15.6890    12.3800 ha         1 YMB       0.094000
     50 H261       -21.9240   -14.6390    14.4460 ha         1 YMB       0.089000
     51 H281       -25.1130   -13.9300    14.2250 h1         1 YMB       0.057700
     52 H1         -24.8200   -13.9030    15.9700 h1         1 YMB       0.057700
     53 H2         -26.7420   -12.6450    16.4400 h1         1 YMB       0.056700
     54 H301       -27.4910   -13.4430    13.5950 h1         1 YMB       0.046700
     55 H302       -27.5790   -14.5260    14.9850 h1         1 YMB       0.046700
     56 H331       -31.4540   -14.1570    16.0380 h1         1 YMB       0.064700
     57 H351       -30.4990   -13.0430    13.4600 h1         1 YMB       0.050700
     58 H352       -29.9890   -14.6040    14.1520 h1         1 YMB       0.050700
     59 H051       -23.4500   -10.2200    12.6310 hn         1 YMB       0.392000
     60 H341       -32.1310   -11.9450    16.5370 hn         1 YMB       0.404000
     61 H342       -31.2890   -11.3380    15.2970 hn         1 YMB       0.404000
     62 H321       -29.1480   -14.0160    16.8030 h1         1 YMB       0.050700
     63 C17        -21.1490   -10.2240     3.6530 c3         1 YMB      -0.330100
     64 O18        -22.3540   -12.5640     3.5860 o          1 YMB      -0.530000
     65 O19        -20.2650   -12.2610     2.2240 o          1 YMB      -0.530000
     66 H322       -29.3850   -12.2610    17.0000 h1         1 YMB       0.050700
@<TRIPOS>BOND
     1     1     3 1   
     2     1     4 ar  
     3     1    14 ar  
     4     2     5 ar  
     5     2     6 1   
     6     2    13 ar  
     7     3    11 2   
     8     3    15 1   
     9     4     5 ar  
    10     4    36 1   
    11     5    37 1   
    12     6    35 1   
    13     6    41 1   
    14     6    42 1   
    15     7     8 1   
    16     7    43 1   
    17     7    44 1   
    18     7    45 1   
    19     8     9 1   
    20     8    28 1   
    21     8    46 1   
    22     9    10 ar  
    23     9    18 ar  
    24    10    15 ar  
    25    10    27 1   
    26    11    12 1   
    27    11    27 1   
    28    12    31 1   
    29    12    32 1   
    30    13    14 ar  
    31    13    26 1   
    32    14    47 1   
    33    15    16 ar  
    34    16    17 ar  
    35    16    48 1   
    36    17    18 ar  
    37    17    49 1   
    38    18    50 1   
    39    19    20 1   
    40    19    28 1   
    41    19    51 1   
    42    19    52 1   
    43    20    21 1   
    44    20    33 1   
    45    20    53 1   
    46    21    29 1   
    47    21    54 1   
    48    21    55 1   
    49    22    23 1   
    50    22    29 1   
    51    22    62 1   
    52    22    66 1   
    53    23    24 1   
    54    23    30 1   
    55    23    56 1   
    56    24    29 1   
    57    24    57 1   
    58    24    58 1   
    59    25    28 1   
    60    25    33 1   
    61    25    34 2   
    62    27    59 1   
    63    30    60 1   
    64    30    61 1   
    65    35    63 1   
    66    35    64 2   
    67    35    65 2   
    68    38    63 1   
    69    39    63 1   
    70    40    63 1   
@<TRIPOS>SUBSTRUCTURE
     1 YMB         1 TEMP              0 ****  ****    0 ROOT
