@<TRIPOS>MOLECULE
YMB
   66    70     1     0     0
SMALL
No Charge or Current Charge


@<TRIPOS>ATOM
      1 C11        -22.1200   -12.0190     9.1890 ca         1 YMB       0.105200
      2 C14        -21.7350   -12.5610     6.4390 ca         1 YMB      -0.166300
      3 C10        -22.2960   -11.7800    10.6180 cc         1 YMB      -0.164400
      4 C12        -21.0950   -11.3740     8.4730 ca         1 YMB      -0.085000
      5 C13        -20.9040   -11.6400     7.1060 ca         1 YMB      -0.090000
      6 C15        -21.5160   -12.8390     4.9470 c3         1 YMB      -0.199100
      7 C01        -21.8170   -12.4960    16.6230 c3         1 YMB      -0.095100
      8 C02        -22.6080   -11.9740    15.4010 c3         1 YMB       0.188000
      9 C03        -22.2990   -12.7250    14.0960 ca         1 YMB      -0.132300
     10 C04        -22.3970   -12.0730    12.8480 ca         1 YMB      -0.056200
     11 C06        -22.7280   -10.5730    11.1840 cd         1 YMB      -0.045300
     12 C07        -23.1190    -9.3040    10.4740 c          1 YMB       0.720200
     13 C20        -22.7490   -13.2190     7.1670 ca         1 YMB       0.189000
     14 C22        -22.9370   -12.9540     8.5310 ca         1 YMB      -0.162000
     15 C23        -22.1160   -12.7230    11.6780 ca         1 YMB      -0.082800
     16 C24        -21.7290   -14.0660    11.6370 ca         1 YMB      -0.064000
     17 C25        -21.6410   -14.7560    12.8610 ca         1 YMB      -0.165000
     18 C26        -21.9250   -14.0950    14.0780 ca         1 YMB      -0.110000
     19 C28        -24.8440   -13.0730    16.1810 c5         1 YMB       0.069000
     20 C29        -26.2600   -12.6400    15.7000 c5         1 YMB       0.155300
     21 C30        -26.6810   -13.3570    14.3830 c3         1 YMB       0.165800
     22 C32        -29.2610   -13.3670    14.6250 cy         1 YMB       0.121300
     23 C33        -29.9950   -13.1780    13.2390 cy         1 YMB       0.138500
     24 C35        -28.6030   -13.6560    12.6660 cy         1 YMB       0.121300
     25 C37        -24.8510   -10.8850    15.2540 c          1 YMB       0.687100
     26 F21        -23.5460   -14.1260     6.5590 f          1 YMB      -0.186000
     27 N05        -22.7760   -10.7600    12.5910 na         1 YMB      -0.190700
     28 N27        -24.0590   -11.9490    15.6630 n          1 YMB      -0.445800
     29 N31        -28.0190   -13.0020    13.8770 nq         1 YMB      -0.696600
     30 N34        -30.4620   -11.8170    12.8800 n8         1 YMB      -0.987200
     31 O08        -23.1050    -9.2440     9.2530 o          1 YMB      -0.692000
     32 O09        -23.4610    -8.3570    11.1710 o          1 YMB      -0.692000
     33 O36        -26.1550   -11.2090    15.4640 os         1 YMB      -0.394100
     34 O38        -24.4520    -9.8250    14.7960 o          1 YMB      -0.527000
     35 S16        -22.5170   -11.8330     3.8140 s6         1 YMB       1.064000
     36 H121       -20.4470   -10.6650     8.9820 ha         1 YMB       0.138000
     37 H131       -20.1080   -11.1280     6.5680 ha         1 YMB       0.098000
     38 H171       -22.4160    -9.9600     5.2600 h1         1 YMB       0.104700
     39 H172       -21.0320   -10.0090     4.0980 h1         1 YMB       0.104700
     40 H173       -22.6680    -9.4880     3.5350 h1         1 YMB       0.104700
     41 H152       -21.7520   -13.8810     4.7080 h1         1 YMB       0.096200
     42 H151       -20.4730   -12.6510     4.6710 h1         1 YMB       0.096200
     43 H011       -21.9740   -11.8350    17.4830 hc         1 YMB       0.037367
     44 H013       -22.1320   -13.5040    16.9150 hc         1 YMB       0.037367
     45 H012       -20.7420   -12.5170    16.4040 hc         1 YMB       0.037367
     46 H021       -22.2670   -10.9390    15.2640 h1         1 YMB       0.085700
     47 H221       -23.7170   -13.4730     9.0790 ha         1 YMB       0.132000
     48 H241       -21.5100   -14.5620    10.6950 ha         1 YMB       0.109000
     49 H251       -21.3520   -15.8040    12.8700 ha         1 YMB       0.094000
     50 H261       -21.8530   -14.6630    15.0010 ha         1 YMB       0.089000
     51 H281       -24.5270   -14.0360    15.7590 h1         1 YMB       0.057700
     52 H1         -24.7870   -13.1250    17.2760 h1         1 YMB       0.057700
     53 H2         -27.0230   -12.8300    16.4660 h1         1 YMB       0.056700
     54 H301       -25.9400   -13.1250    13.6060 h1         1 YMB       0.046700
     55 H302       -26.6500   -14.4410    14.5540 h1         1 YMB       0.046700
     56 H331       -30.7950   -13.9130    13.0860 h1         1 YMB       0.064700
     57 H351       -28.3230   -13.2210    11.7000 h1         1 YMB       0.050700
     58 H352       -28.4960   -14.7480    12.6330 h1         1 YMB       0.050700
     59 H051       -23.1310   -10.0840    13.2640 hn         1 YMB       0.392000
     60 H341       -31.1340   -11.4870    13.5820 hn         1 YMB       0.404000
     61 H342       -29.6660   -11.1810    13.0060 hn         1 YMB       0.404000
     62 H321       -29.2900   -14.3990    14.9980 h1         1 YMB       0.050700
     63 C17        -22.1120   -10.1340     4.2220 c3         1 YMB      -0.330100
     64 O18        -23.9360   -12.0400     4.1300 o          1 YMB      -0.530000
     65 O19        -22.0430   -12.0840     2.4460 o          1 YMB      -0.530000
     66 H322       -29.5700   -12.6730    15.4160 h1         1 YMB       0.050700
@<TRIPOS>BOND
     1     1     3 1   
     2     1     4 ar  
     3     1    14 ar  
     4     2     5 ar  
     5     2     6 1   
     6     2    13 ar  
     7     3    11 2   
     8     3    15 1   
     9     4     5 ar  
    10     4    36 1   
    11     5    37 1   
    12     6    35 1   
    13     6    41 1   
    14     6    42 1   
    15     7     8 1   
    16     7    43 1   
    17     7    44 1   
    18     7    45 1   
    19     8     9 1   
    20     8    28 1   
    21     8    46 1   
    22     9    10 ar  
    23     9    18 ar  
    24    10    15 ar  
    25    10    27 1   
    26    11    12 1   
    27    11    27 1   
    28    12    31 1   
    29    12    32 1   
    30    13    14 ar  
    31    13    26 1   
    32    14    47 1   
    33    15    16 ar  
    34    16    17 ar  
    35    16    48 1   
    36    17    18 ar  
    37    17    49 1   
    38    18    50 1   
    39    19    20 1   
    40    19    28 1   
    41    19    51 1   
    42    19    52 1   
    43    20    21 1   
    44    20    33 1   
    45    20    53 1   
    46    21    29 1   
    47    21    54 1   
    48    21    55 1   
    49    22    23 1   
    50    22    29 1   
    51    22    62 1   
    52    22    66 1   
    53    23    24 1   
    54    23    30 1   
    55    23    56 1   
    56    24    29 1   
    57    24    57 1   
    58    24    58 1   
    59    25    28 1   
    60    25    33 1   
    61    25    34 2   
    62    27    59 1   
    63    30    60 1   
    64    30    61 1   
    65    35    63 1   
    66    35    64 2   
    67    35    65 2   
    68    38    63 1   
    69    39    63 1   
    70    40    63 1   
@<TRIPOS>SUBSTRUCTURE
     1 YMB         1 TEMP              0 ****  ****    0 ROOT
