@<TRIPOS>MOLECULE
YMC
   38    41     1     0     0
SMALL
abcg2


@<TRIPOS>ATOM
      1 C1         -19.3690   -20.3970    -4.1810 ca         1 YMC       0.423000
      2 C10        -20.5440   -27.4470     0.7090 ca         1 YMC      -0.069000
      3 C11        -19.8090   -28.5920     0.4390 ca         1 YMC      -0.204000
      4 C12        -18.9060   -28.5880    -0.6220 ca         1 YMC       0.140100
      5 C13        -18.7570   -27.4440    -1.4000 ca         1 YMC      -0.139000
      6 C14        -20.0690   -19.9710    -3.0520 ca         1 YMC      -0.228000
      7 C15        -20.6050   -18.6830    -2.9710 ca         1 YMC      -0.017000
      8 C16        -20.4820   -17.7410    -3.9790 ca         1 YMC      -0.176000
      9 C17        -19.7790   -18.1740    -5.0930 ca         1 YMC       0.134100
     10 C18        -19.2410   -19.4470    -5.2140 ca         1 YMC      -0.324900
     11 C19        -18.6520   -19.4090    -6.5140 cc         1 YMC       0.606200
     12 C2         -18.9940   -22.7520    -3.5110 ca         1 YMC       0.303000
     13 C3         -17.9090   -23.5830    -3.2310 ca         1 YMC      -0.151500
     14 C4         -18.0740   -24.7280    -2.4730 ca         1 YMC      -0.069500
     15 C5         -19.3200   -25.0810    -1.9530 cp         1 YMC      -0.059000
     16 C6         -20.4000   -24.2460    -2.2440 ca         1 YMC      -0.069500
     17 C7         -20.2500   -23.1080    -3.0170 ca         1 YMC      -0.151500
     18 C8         -19.4930   -26.2930    -1.1270 cp         1 YMC       0.008000
     19 C9         -20.3940   -26.3030    -0.0590 ca         1 YMC      -0.140000
     20 N1         -18.7990   -21.6360    -4.3210 nu         1 YMC      -0.977000
     21 N2         -18.8150   -18.2610    -7.0890 nd         1 YMC      -0.402700
     22 O2         -19.5250   -17.4690    -6.2050 os         1 YMC      -0.105100
     23 O3         -18.0140   -20.4240    -7.0750 oh         1 YMC      -0.603600
     24 H7         -21.2380   -27.4480     1.5390 ha         1 YMC       0.113000
     25 H8         -19.9360   -29.4790     1.0500 ha         1 YMC       0.114000
     26 H9         -18.0710   -27.4690    -2.2390 ha         1 YMC       0.129000
     27 H11        -20.1900   -20.6300    -2.2050 ha         1 YMC       0.129000
     28 H12        -21.1330   -18.4100    -2.0660 ha         1 YMC       0.116000
     29 H13        -20.9000   -16.7480    -3.9000 ha         1 YMC       0.141000
     30 H2         -16.9250   -23.3230    -3.6020 ha         1 YMC       0.122000
     31 H3         -17.2050   -25.3380    -2.2590 ha         1 YMC       0.119000
     32 H4         -21.3910   -24.5030    -1.8930 ha         1 YMC       0.119000
     33 H5         -21.1210   -22.5120    -3.2540 ha         1 YMC       0.122000
     34 H6         -20.9590   -25.4150     0.1890 ha         1 YMC       0.117000
     35 H1         -18.0350   -21.7070    -4.9760 hn         1 YMC       0.510000
     36 H10        -18.3540   -30.4010    -0.3610 ho         1 YMC       0.465000
     37 H14        -17.6850   -20.1860    -7.9530 ho         1 YMC       0.494000
     38 O1         -18.1590   -29.6620    -0.9480 oh         1 YMC      -0.535100
@<TRIPOS>BOND
     1     1     6 ar  
     2     1    10 ar  
     3     1    20 1   
     4     2     3 ar  
     5     2    19 ar  
     6     2    24 1   
     7     3     4 ar  
     8     3    25 1   
     9     4     5 ar  
    10     4    38 1   
    11     5    18 ar  
    12     5    26 1   
    13     6     7 ar  
    14     6    27 1   
    15     7     8 ar  
    16     7    28 1   
    17     8     9 ar  
    18     8    29 1   
    19     9    10 ar  
    20     9    22 1   
    21    10    11 1   
    22    11    21 2   
    23    11    23 1   
    24    12    13 ar  
    25    12    17 ar  
    26    12    20 1   
    27    13    14 ar  
    28    13    30 1   
    29    14    15 ar  
    30    14    31 1   
    31    15    16 ar  
    32    15    18 1   
    33    16    17 ar  
    34    16    32 1   
    35    17    33 1   
    36    18    19 ar  
    37    19    34 1   
    38    20    35 1   
    39    21    22 1   
    40    23    37 1   
    41    36    38 1   
@<TRIPOS>SUBSTRUCTURE
     1 YMC         1 TEMP              0 ****  ****    0 ROOT
