@<TRIPOS>MOLECULE
YMC
   38    41     1     0     0
SMALL
No Charge or Current Charge


@<TRIPOS>ATOM
      1 C1         -19.4140   -20.2390    -4.1230 ca         1 YMC       0.423000
      2 C10        -20.4490   -27.5920     0.7580 ca         1 YMC      -0.069000
      3 C11        -19.7650   -28.7520     0.3600 ca         1 YMC      -0.204000
      4 C12        -18.9310   -28.7180    -0.7670 ca         1 YMC       0.140100
      5 C13        -18.7790   -27.5280    -1.4950 ca         1 YMC      -0.139000
      6 C14        -20.1620   -19.7410    -3.0360 ca         1 YMC      -0.228000
      7 C15        -20.7570   -18.4570    -3.0960 ca         1 YMC      -0.017000
      8 C16        -20.5960   -17.6560    -4.2470 ca         1 YMC      -0.176000
      9 C17        -19.8280   -18.1710    -5.2960 ca         1 YMC       0.134100
     10 C18        -19.2590   -19.4040    -5.2240 ca         1 YMC      -0.324900
     11 C19        -18.5710   -19.5290    -6.4530 cc         1 YMC       0.606200
     12 C2         -18.9870   -22.6510    -3.3640 ca         1 YMC       0.303000
     13 C3         -17.9130   -23.5440    -3.2330 ca         1 YMC      -0.151500
     14 C4         -18.0610   -24.7370    -2.5030 ca         1 YMC      -0.069500
     15 C5         -19.2960   -25.0730    -1.8940 cp         1 YMC      -0.059000
     16 C6         -20.3760   -24.1690    -2.0540 ca         1 YMC      -0.069500
     17 C7         -20.2240   -22.9770    -2.7840 ca         1 YMC      -0.151500
     18 C8         -19.4580   -26.3430    -1.1160 cp         1 YMC       0.008000
     19 C9         -20.2960   -26.4020     0.0260 ca         1 YMC      -0.140000
     20 N1         -18.8070   -21.4860    -4.1090 nu         1 YMC      -0.977000
     21 N2         -18.6900   -18.4710    -7.2410 nd         1 YMC      -0.402700
     22 O2         -19.5380   -17.5470    -6.4870 os         1 YMC      -0.105100
     23 O3         -17.8240   -20.6000    -6.7340 oh         1 YMC      -0.603600
     24 H7         -21.0950   -27.6140     1.6330 ha         1 YMC       0.113000
     25 H8         -19.8880   -29.6700     0.9300 ha         1 YMC       0.114000
     26 H9         -18.1380   -27.5300    -2.3730 ha         1 YMC       0.129000
     27 H11        -20.2720   -20.3310    -2.1330 ha         1 YMC       0.129000
     28 H12        -21.3330   -18.0840    -2.2520 ha         1 YMC       0.116000
     29 H13        -21.0420   -16.6680    -4.3130 ha         1 YMC       0.141000
     30 H2         -16.9540   -23.3100    -3.6860 ha         1 YMC       0.122000
     31 H3         -17.2050   -25.3990    -2.3990 ha         1 YMC       0.119000
     32 H4         -21.3480   -24.4030    -1.6260 ha         1 YMC       0.119000
     33 H5         -21.0810   -22.3250    -2.9160 ha         1 YMC       0.122000
     34 H6         -20.8240   -25.5120     0.3590 ha         1 YMC       0.117000
     35 H1         -18.1130   -21.5740    -4.8540 hn         1 YMC       0.510000
     36 H10        -18.4950   -30.5660    -0.5380 ho         1 YMC       0.465000
     37 H14        -17.4640   -20.3940    -7.6210 ho         1 YMC       0.494000
     38 O1         -18.2680   -29.8410    -1.1590 oh         1 YMC      -0.535100
@<TRIPOS>BOND
     1     1     6 ar  
     2     1    10 ar  
     3     1    20 1   
     4     2     3 ar  
     5     2    19 ar  
     6     2    24 1   
     7     3     4 ar  
     8     3    25 1   
     9     4     5 ar  
    10     4    38 1   
    11     5    18 ar  
    12     5    26 1   
    13     6     7 ar  
    14     6    27 1   
    15     7     8 ar  
    16     7    28 1   
    17     8     9 ar  
    18     8    29 1   
    19     9    10 ar  
    20     9    22 1   
    21    10    11 1   
    22    11    21 2   
    23    11    23 1   
    24    12    13 ar  
    25    12    17 ar  
    26    12    20 1   
    27    13    14 ar  
    28    13    30 1   
    29    14    15 ar  
    30    14    31 1   
    31    15    16 ar  
    32    15    18 1   
    33    16    17 ar  
    34    16    32 1   
    35    17    33 1   
    36    18    19 ar  
    37    19    34 1   
    38    20    35 1   
    39    21    22 1   
    40    23    37 1   
    41    36    38 1   
@<TRIPOS>SUBSTRUCTURE
     1 YMC         1 TEMP              0 ****  ****    0 ROOT
