@<TRIPOS>MOLECULE
YME
   30    32     1     0     0
SMALL
No Charge or Current Charge


@<TRIPOS>ATOM
      1 C10          9.0240   -12.1630   -23.7820 ca         1 YME       0.169100
      2 O12         10.6910   -10.0370   -17.2040 o          1 YME      -0.705000
      3 O14          9.8330   -13.2610   -23.7920 oh         1 YME      -0.499100
      4 C15         13.0970   -11.3570   -18.6940 ca         1 YME      -0.038000
      5 C16          8.2000   -10.0980   -22.7890 ca         1 YME      -0.058000
      6 C17         14.4360   -11.5130   -19.0820 ca         1 YME      -0.156000
      7 C18         14.7660   -11.6080   -20.4390 ca         1 YME      -0.112000
      8 C19          8.0550   -12.0510   -24.7940 ca         1 YME      -0.227000
      9 C20          7.2340    -9.9930   -23.8040 ca         1 YME      -0.161000
     10 C21          7.1630   -10.9680   -24.8090 ca         1 YME      -0.076000
     11 C2          10.1320   -11.2480   -21.6610 cp         1 YME       0.411500
     12 C3          10.7100   -11.1320   -19.2880 ca         1 YME      -0.078600
     13 C4          12.3940   -11.4040   -21.0490 ca         1 YME       0.265000
     14 C5          12.0690   -11.2930   -19.6650 ca         1 YME      -0.053000
     15 C6           9.7460   -11.1130   -20.3130 ca         1 YME      -0.157000
     16 C7           9.1210   -11.1770   -22.7610 cp         1 YME      -0.152500
     17 C8          10.2590   -10.9790   -17.8530 c          1 YME       0.716600
     18 C9          13.7580   -11.5560   -21.4150 ca         1 YME       0.130000
     19 N1          11.4300   -11.3680   -22.0070 nb         1 YME      -0.671000
     20 O11          9.4240   -11.7660   -17.4290 o          1 YME      -0.705000
     21 Cl13        14.2440   -11.6930   -23.1130 cl         1 YME      -0.222000
     22 H24          9.6070   -13.7980   -24.5780 ho         1 YME       0.449000
     23 H25         12.8730   -11.2930   -17.6320 ha         1 YME       0.157000
     24 H26          8.2450    -9.3290   -22.0210 ha         1 YME       0.125000
     25 H27         15.2180   -11.5590   -18.3270 ha         1 YME       0.101000
     26 H28         15.8050   -11.7280   -20.7380 ha         1 YME       0.107000
     27 H29          7.9820   -12.8090   -25.5710 ha         1 YME       0.100000
     28 H30          6.5420    -9.1540   -23.8110 ha         1 YME       0.107000
     29 H31          6.4140   -10.8870   -25.5950 ha         1 YME       0.098000
     30 H22          8.6940   -10.9960   -20.0690 ha         1 YME       0.135000
@<TRIPOS>BOND
     1     1     3 1   
     2     1     8 ar  
     3     1    16 ar  
     4     2    17 1   
     5     3    22 1   
     6     4     6 ar  
     7     4    14 ar  
     8     4    23 1   
     9     5     9 ar  
    10     5    16 ar  
    11     5    24 1   
    12     6     7 ar  
    13     6    25 1   
    14     7    18 ar  
    15     7    26 1   
    16     8    10 ar  
    17     8    27 1   
    18     9    10 ar  
    19     9    28 1   
    20    10    29 1   
    21    11    15 ar  
    22    11    16 1   
    23    11    19 ar  
    24    12    14 ar  
    25    12    15 ar  
    26    12    17 1   
    27    13    14 ar  
    28    13    18 ar  
    29    13    19 ar  
    30    15    30 1   
    31    17    20 1   
    32    18    21 1   
@<TRIPOS>SUBSTRUCTURE
     1 YME         1 TEMP              0 ****  ****    0 ROOT
