@<TRIPOS>MOLECULE
YME
   30    32     1     0     0
SMALL
abcg2


@<TRIPOS>ATOM
      1 C10          9.0980   -12.1160   -23.7750 ca         1 YME       0.169100
      2 O12         10.8550   -10.1930   -17.1480 o          1 YME      -0.705000
      3 O14          9.9870   -13.1240   -23.7550 oh         1 YME      -0.499100
      4 C15         13.1020   -11.3380   -18.7260 ca         1 YME      -0.038000
      5 C16          8.1980   -10.1370   -22.7500 ca         1 YME      -0.058000
      6 C17         14.3920   -11.5370   -19.1310 ca         1 YME      -0.156000
      7 C18         14.7090   -11.6610   -20.4970 ca         1 YME      -0.112000
      8 C19          8.1170   -12.0260   -24.7610 ca         1 YME      -0.227000
      9 C20          7.2260   -10.0410   -23.7350 ca         1 YME      -0.161000
     10 C21          7.1920   -10.9940   -24.7420 ca         1 YME      -0.076000
     11 C2          10.1680   -11.2080   -21.6810 cp         1 YME       0.411500
     12 C3          10.6810   -11.1040   -19.3210 ca         1 YME      -0.078600
     13 C4          12.3550   -11.3940   -21.0550 ca         1 YME       0.265000
     14 C5          12.0520   -11.2600   -19.6720 ca         1 YME      -0.053000
     15 C6           9.7590   -11.1020   -20.3340 ca         1 YME      -0.157000
     16 C7           9.1500   -11.1550   -22.7550 cp         1 YME      -0.152500
     17 C8          10.1840   -10.9400   -17.8810 c          1 YME       0.716600
     18 C9          13.7130   -11.5890   -21.4280 ca         1 YME       0.130000
     19 N1          11.4240   -11.3470   -22.0230 nb         1 YME      -0.671000
     20 O11          9.1390   -11.5510   -17.6060 o          1 YME      -0.705000
     21 CL13        14.0990   -11.7550   -23.1050 cl         1 YME      -0.222000
     22 H24          9.8050   -13.7420   -24.4730 ho         1 YME       0.449000
     23 H25         12.8760   -11.2350   -17.6760 ha         1 YME       0.157000
     24 H26          8.2350    -9.3940   -21.9630 ha         1 YME       0.125000
     25 H27         15.1880   -11.5990   -18.4020 ha         1 YME       0.101000
     26 H28         15.7340   -11.8170   -20.8030 ha         1 YME       0.107000
     27 H29          8.0730   -12.7730   -25.5460 ha         1 YME       0.100000
     28 H30          6.5090    -9.2320   -23.7140 ha         1 YME       0.107000
     29 H31          6.4410   -10.9410   -25.5200 ha         1 YME       0.098000
     30 H22          8.7040   -11.0240   -20.1060 ha         1 YME       0.135000
@<TRIPOS>BOND
     1     1     3 1   
     2     1     8 ar  
     3     1    16 ar  
     4     2    17 1   
     5     3    22 1   
     6     4     6 ar  
     7     4    14 ar  
     8     4    23 1   
     9     5     9 ar  
    10     5    16 ar  
    11     5    24 1   
    12     6     7 ar  
    13     6    25 1   
    14     7    18 ar  
    15     7    26 1   
    16     8    10 ar  
    17     8    27 1   
    18     9    10 ar  
    19     9    28 1   
    20    10    29 1   
    21    11    15 ar  
    22    11    16 1   
    23    11    19 ar  
    24    12    14 ar  
    25    12    15 ar  
    26    12    17 1   
    27    13    14 ar  
    28    13    18 ar  
    29    13    19 ar  
    30    15    30 1   
    31    17    20 1   
    32    18    21 1   
@<TRIPOS>SUBSTRUCTURE
     1 YME         1 TEMP              0 ****  ****    0 ROOT
