@<TRIPOS>MOLECULE
YMF
   54    57     1     0     0
SMALL
abcg2


@<TRIPOS>ATOM
      1 C10        -20.5700   -13.0920     7.8510 cc         1 YMF       0.229900
      2 C13        -20.3460   -10.9160     7.7150 cd         1 YMF      -0.130000
      3 C14        -22.5660   -10.8440    10.1800 cd         1 YMF      -0.069300
      4 C15        -23.2380    -9.6810     9.4890 c          1 YMF       0.725200
      5 C19        -22.2810   -12.2150    11.9320 ca         1 YMF      -0.056200
      6 C01        -22.9170   -12.7260    15.6720 c3         1 YMF      -0.095100
      7 C02        -23.2790   -12.3180    14.2510 c3         1 YMF       0.190000
      8 C03        -22.3330   -12.8360    13.1880 ca         1 YMF      -0.138300
      9 C04        -21.5040   -13.9270    13.3680 ca         1 YMF      -0.110000
     10 C05        -20.6420   -14.3790    12.3550 ca         1 YMF      -0.176000
     11 C06        -20.5900   -13.7520    11.1280 ca         1 YMF      -0.057000
     12 C07        -21.4240   -12.6500    10.8970 ca         1 YMF      -0.091800
     13 C08        -21.6170   -11.7640     9.7830 cc         1 YMF      -0.086400
     14 C09        -20.9020   -11.8920     8.5190 cc         1 YMF      -0.087800
     15 C21        -25.0810   -14.0780    13.8320 c5         1 YMF       0.070000
     16 C22        -26.5950   -13.8810    13.7150 c5         1 YMF       0.155300
     17 C23        -27.3040   -14.0300    15.0480 c3         1 YMF      -0.092400
     18 C24        -28.7910   -13.6780    15.0510 c3         1 YMF      -0.054700
     19 C25        -29.3180   -13.7680    16.4840 c3         1 YMF       0.149800
     20 C27        -29.5900   -14.5680    14.1060 c3         1 YMF      -0.081100
     21 C29        -25.5860   -11.8560    13.4870 c          1 YMF       0.690100
     22 N11        -19.8800   -12.8710     6.7480 nd         1 YMF      -0.574800
     23 N12        -19.7550   -11.5500     6.6910 na         1 YMF      -0.024200
     24 N18        -22.9500   -11.1310    11.4630 na         1 YMF      -0.193700
     25 N20        -24.6450   -12.7060    13.9430 n          1 YMF      -0.446800
     26 N26        -30.6980   -13.3190    16.5820 n8         1 YMF      -0.998200
     27 O16        -22.8320    -9.3790     8.3550 o          1 YMF      -0.703500
     28 O17        -24.1510    -9.1380    10.1440 o          1 YMF      -0.703500
     29 O28        -26.7160   -12.5300    13.2330 os         1 YMF      -0.413100
     30 O30        -25.4920   -10.6610    13.3050 o          1 YMF      -0.528000
     31 H101       -20.8280   -14.1010     8.1350 h4         1 YMF       0.021100
     32 H131       -20.3340    -9.8440     7.8040 h4         1 YMF       0.174000
     33 H012       -21.9050   -12.4010    15.9120 hc         1 YMF       0.036033
     34 H021       -23.2630   -11.2260    14.2150 h1         1 YMF       0.083700
     35 H041       -21.5010   -14.4500    14.3150 ha         1 YMF       0.086000
     36 H051       -20.0030   -15.2310    12.5500 ha         1 YMF       0.090000
     37 H061       -19.9070   -14.1030    10.3650 ha         1 YMF       0.107000
     38 H211       -24.8170   -14.6660    14.7120 h1         1 YMF       0.059700
     39 H212       -24.6490   -14.5650    12.9530 h1         1 YMF       0.059700
     40 H1         -27.0270   -14.5350    12.9590 h1         1 YMF       0.082700
     41 H232       -27.1820   -15.0730    15.3610 hc         1 YMF       0.044200
     42 H231       -26.7770   -13.4240    15.7940 hc         1 YMF       0.044200
     43 H241       -28.9020   -12.6360    14.7280 hc         1 YMF       0.068700
     44 H251       -29.2730   -14.8120    16.8110 h1         1 YMF       0.022700
     45 H252       -28.6350   -13.2100    17.1420 h1         1 YMF       0.022700
     46 H271       -30.6560   -14.3560    14.1820 hc         1 YMF       0.035700
     47 H272       -29.3020   -14.4260    13.0640 hc         1 YMF       0.035700
     48 H2         -29.4410   -15.6230    14.3510 hc         1 YMF       0.035700
     49 H121       -19.2600   -11.1260     5.9230 hn         1 YMF       0.351000
     50 H181       -23.6660   -10.6000    11.9380 hn         1 YMF       0.387000
     51 H262       -31.0310   -13.4550    17.5280 hn         1 YMF       0.390500
     52 H3         -30.7350   -12.3190    16.4200 hn         1 YMF       0.390500
     53 H011       -23.6020   -12.2530    16.3750 hc         1 YMF       0.036033
     54 H013       -22.9690   -13.8030    15.8260 hc         1 YMF       0.036033
@<TRIPOS>BOND
     1     1    14 1   
     2     1    22 2   
     3     1    31 1   
     4     2    14 2   
     5     2    23 1   
     6     2    32 1   
     7     3     4 1   
     8     3    13 2   
     9     3    24 1   
    10     4    27 1   
    11     4    28 1   
    12     5     8 ar  
    13     5    12 ar  
    14     5    24 1   
    15     6     7 1   
    16     6    33 1   
    17     6    53 1   
    18     6    54 1   
    19     7     8 1   
    20     7    25 1   
    21     7    34 1   
    22     8     9 ar  
    23     9    10 ar  
    24     9    35 1   
    25    10    11 ar  
    26    10    36 1   
    27    11    12 ar  
    28    11    37 1   
    29    12    13 1   
    30    13    14 1   
    31    15    16 1   
    32    15    25 1   
    33    15    38 1   
    34    15    39 1   
    35    16    17 1   
    36    16    29 1   
    37    16    40 1   
    38    17    18 1   
    39    17    41 1   
    40    17    42 1   
    41    18    19 1   
    42    18    20 1   
    43    18    43 1   
    44    19    26 1   
    45    19    44 1   
    46    19    45 1   
    47    20    46 1   
    48    20    47 1   
    49    20    48 1   
    50    21    25 1   
    51    21    29 1   
    52    21    30 2   
    53    22    23 1   
    54    23    49 1   
    55    24    50 1   
    56    26    51 1   
    57    26    52 1   
@<TRIPOS>SUBSTRUCTURE
     1 YMF         1 TEMP              0 ****  ****    0 ROOT
