@<TRIPOS>MOLECULE
YMF
   54    57     1     0     0
SMALL
No Charge or Current Charge


@<TRIPOS>ATOM
      1 C10        -20.1120   -12.7830     7.8640 cc         1 YMF       0.229900
      2 C13        -20.5870   -10.6320     7.6740 cd         1 YMF      -0.130000
      3 C14        -22.5080   -10.8120    10.1740 cd         1 YMF      -0.069300
      4 C15        -23.2330    -9.7260     9.4180 c          1 YMF       0.725200
      5 C19        -22.1940   -12.2970    11.8440 ca         1 YMF      -0.056200
      6 C01        -22.6550   -12.8400    15.6240 c3         1 YMF      -0.095100
      7 C02        -23.1700   -12.4900    14.2090 c3         1 YMF       0.190000
      8 C03        -22.2660   -12.9920    13.0710 ca         1 YMF      -0.138300
      9 C04        -21.4770   -14.1610    13.1970 ca         1 YMF      -0.110000
     10 C05        -20.6260   -14.5680    12.1490 ca         1 YMF      -0.176000
     11 C06        -20.5620   -13.8320    10.9520 ca         1 YMF      -0.057000
     12 C07        -21.3910   -12.7050    10.8110 ca         1 YMF      -0.091800
     13 C08        -21.5350   -11.7410     9.7350 cc         1 YMF      -0.086400
     14 C09        -20.8050   -11.7180     8.4750 cc         1 YMF      -0.087800
     15 C21        -25.0660   -14.2860    14.2130 c5         1 YMF       0.070000
     16 C22        -26.5860   -14.0560    13.9490 c5         1 YMF       0.155300
     17 C23        -27.4270   -13.9970    15.2540 c3         1 YMF      -0.092400
     18 C24        -28.9410   -13.6780    15.0830 c3         1 YMF      -0.054700
     19 C25        -29.6110   -13.5010    16.4730 c3         1 YMF       0.149800
     20 C27        -29.6660   -14.7440    14.2180 c3         1 YMF      -0.081100
     21 C29        -25.5100   -12.0850    13.4360 c          1 YMF       0.690100
     22 N11        -19.4990   -12.4610     6.7410 nd         1 YMF      -0.574800
     23 N12        -19.7950   -11.1060     6.6200 na         1 YMF      -0.024200
     24 N18        -22.8640   -11.1390    11.5060 na         1 YMF      -0.193700
     25 N20        -24.5680   -12.9230    14.0130 n          1 YMF      -0.446800
     26 N26        -31.0020   -13.0110    16.3890 n8         1 YMF      -0.998200
     27 O16        -23.1900    -9.6610     8.1990 o          1 YMF      -0.703500
     28 O17        -23.9650    -8.9940    10.0710 o          1 YMF      -0.703500
     29 O28        -26.6730   -12.7720    13.2790 os         1 YMF      -0.413100
     30 O30        -25.3270   -10.9270    13.0950 o          1 YMF      -0.528000
     31 H101       -20.0620   -13.8140     8.1740 h4         1 YMF       0.021100
     32 H131       -20.8550    -9.5880     7.7730 h4         1 YMF       0.174000
     33 H012       -21.6200   -12.5010    15.7500 hc         1 YMF       0.036033
     34 H021       -23.1460   -11.3920    14.1710 h1         1 YMF       0.083700
     35 H041       -21.5000   -14.7560    14.1050 ha         1 YMF       0.086000
     36 H051       -20.0050   -15.4520    12.2720 ha         1 YMF       0.090000
     37 H061       -19.8690   -14.1440    10.1820 ha         1 YMF       0.107000
     38 H211       -24.8690   -14.6630    15.2250 h1         1 YMF       0.059700
     39 H212       -24.6270   -14.9790    13.4840 h1         1 YMF       0.059700
     40 H1         -26.9880   -14.8380    13.2920 h1         1 YMF       0.082700
     41 H232       -27.3300   -14.9540    15.7820 hc         1 YMF       0.044200
     42 H231       -26.9860   -13.2440    15.9200 hc         1 YMF       0.044200
     43 H241       -29.0200   -12.7170    14.5600 hc         1 YMF       0.068700
     44 H251       -29.6090   -14.4600    17.0100 h1         1 YMF       0.022700
     45 H252       -29.0350   -12.7770    17.0670 h1         1 YMF       0.022700
     46 H271       -30.7310   -14.5090    14.1100 hc         1 YMF       0.035700
     47 H272       -29.2430   -14.7890    13.2070 hc         1 YMF       0.035700
     48 H2         -29.5810   -15.7390    14.6720 hc         1 YMF       0.035700
     49 H121       -19.4450   -10.5510     5.8390 hn         1 YMF       0.351000
     50 H181       -23.6070   -10.6900    12.0380 hn         1 YMF       0.387000
     51 H262       -31.3570   -12.8490    17.3390 hn         1 YMF       0.390500
     52 H3         -31.0010   -12.0740    15.9690 hn         1 YMF       0.390500
     53 H011       -23.2690   -12.3400    16.3830 hc         1 YMF       0.036033
     54 H013       -22.6930   -13.9170    15.8190 hc         1 YMF       0.036033
@<TRIPOS>BOND
     1     1    14 1   
     2     1    22 2   
     3     1    31 1   
     4     2    14 2   
     5     2    23 1   
     6     2    32 1   
     7     3     4 1   
     8     3    13 2   
     9     3    24 1   
    10     4    27 1   
    11     4    28 1   
    12     5     8 ar  
    13     5    12 ar  
    14     5    24 1   
    15     6     7 1   
    16     6    33 1   
    17     6    53 1   
    18     6    54 1   
    19     7     8 1   
    20     7    25 1   
    21     7    34 1   
    22     8     9 ar  
    23     9    10 ar  
    24     9    35 1   
    25    10    11 ar  
    26    10    36 1   
    27    11    12 ar  
    28    11    37 1   
    29    12    13 1   
    30    13    14 1   
    31    15    16 1   
    32    15    25 1   
    33    15    38 1   
    34    15    39 1   
    35    16    17 1   
    36    16    29 1   
    37    16    40 1   
    38    17    18 1   
    39    17    41 1   
    40    17    42 1   
    41    18    19 1   
    42    18    20 1   
    43    18    43 1   
    44    19    26 1   
    45    19    44 1   
    46    19    45 1   
    47    20    46 1   
    48    20    47 1   
    49    20    48 1   
    50    21    25 1   
    51    21    29 1   
    52    21    30 2   
    53    22    23 1   
    54    23    49 1   
    55    24    50 1   
    56    26    51 1   
    57    26    52 1   
@<TRIPOS>SUBSTRUCTURE
     1 YMF         1 TEMP              0 ****  ****    0 ROOT
