@<TRIPOS>MOLECULE
YMH
   52    55     1     0     0
SMALL
abcg2


@<TRIPOS>ATOM
      1 C1          24.6560   -21.3960    20.9660 c3         1 YMH      -0.046800
      2 C10         33.7870   -22.3480    21.1240 cc         1 YMH      -0.076000
      3 C11         32.4630   -22.4420    21.4560 cd         1 YMH      -0.098000
      4 C12         32.0870   -22.3130    22.8050 cd         1 YMH       0.002000
      5 C13         26.4170   -23.6570    24.2240 ca         1 YMH      -0.093300
      6 C14         27.0070   -24.4460    25.3720 c3         1 YMH      -0.017400
      7 C15         26.4820   -25.8780    25.4480 c3         1 YMH      -0.085600
      8 C16         26.7740   -23.7150    26.6970 c3         1 YMH      -0.085600
      9 C17         25.0750   -23.7990    23.8820 ca         1 YMH      -0.096000
     10 C18         24.5210   -23.0810    22.8400 ca         1 YMH       0.069100
     11 C19         22.7930   -24.1250    21.6320 ca         1 YMH       0.175100
     12 C2          25.2660   -22.1750    22.0910 ca         1 YMH      -0.063300
     13 C20         21.4290   -24.2240    21.3740 ca         1 YMH      -0.222000
     14 C21         21.0080   -25.1280    20.4170 ca         1 YMH       0.360400
     15 C22         23.1220   -25.8030    19.9770 ca         1 YMH       0.360400
     16 C23         23.6650   -24.9370    20.9140 ca         1 YMH      -0.222000
     17 C3          26.5960   -22.0130    22.4500 ca         1 YMH      -0.102000
     18 C4          27.1750   -22.7340    23.4920 ca         1 YMH      -0.017000
     19 C5          29.5640   -22.5540    22.9610 c          1 YMH       0.670300
     20 C6          30.8880   -22.3420    23.5340 cc         1 YMH      -0.413800
     21 C7          31.3090   -22.1370    24.8630 cc         1 YMH       0.634900
     22 C8          34.3890   -22.0040    23.4180 cd         1 YMH      -0.073000
     23 C9          34.7660   -22.1260    22.1160 cc         1 YMH      -0.160000
     24 N1          28.5210   -22.5070    23.8370 ns         1 YMH      -0.163000
     25 N2          32.6090   -21.9920    24.9860 nd         1 YMH      -0.675100
     26 N3          33.0770   -22.1000    23.7310 na         1 YMH       0.334400
     27 N4          21.8250   -25.9120    19.7190 nb         1 YMH      -0.689000
     28 O1          29.4110   -22.7630    21.7650 o          1 YMH      -0.612100
     29 O2          30.4950   -22.0910    25.9110 oh         1 YMH      -0.609600
     30 H3          24.3600   -22.0450    20.1390 hc         1 YMH       0.049367
     31 H1          23.7640   -20.8560    21.2850 hc         1 YMH       0.049367
     32 H2          25.3640   -20.6690    20.5720 hc         1 YMH       0.049367
     33 H9          34.0900   -22.4440    20.0900 ha         1 YMH       0.130000
     34 H10         31.7030   -22.6120    20.7100 ha         1 YMH       0.166000
     35 H11         28.0870   -24.5120    25.2100 hc         1 YMH       0.055700
     36 H13         27.0290   -26.4300    26.2130 hc         1 YMH       0.036200
     37 H14         25.4260   -25.9160    25.7170 hc         1 YMH       0.036200
     38 H12         26.6100   -26.4040    24.5020 hc         1 YMH       0.036200
     39 H17         27.2410   -24.2560    27.5220 hc         1 YMH       0.036200
     40 H15         27.1880   -22.7060    26.6830 hc         1 YMH       0.036200
     41 H16         25.7070   -23.6340    26.9100 hc         1 YMH       0.036200
     42 H18         24.4420   -24.4870    24.4290 ha         1 YMH       0.129000
     43 H19         20.7150   -23.6120    21.9090 ha         1 YMH       0.137000
     44 H20         19.9480   -25.2200    20.2040 h4         1 YMH       0.017600
     45 H21         23.7860   -26.4430    19.4070 h4         1 YMH       0.017600
     46 H22         24.7360   -24.9120    21.0650 ha         1 YMH       0.137000
     47 H4          27.1940   -21.2880    21.9130 ha         1 YMH       0.134000
     48 H7          35.0660   -21.8340    24.2410 h4         1 YMH       0.163000
     49 H8          35.8120   -22.0500    21.8600 ha         1 YMH       0.138000
     50 H5          28.7310   -22.3920    24.8160 hn         1 YMH       0.173000
     51 H6          30.9910   -21.9440    26.7280 ho         1 YMH       0.494000
     52 O3          23.1770   -23.2380    22.5700 os         1 YMH      -0.246200
@<TRIPOS>BOND
     1     1    12 1   
     2     1    30 1   
     3     1    31 1   
     4     1    32 1   
     5     2     3 2   
     6     2    23 1   
     7     2    33 1   
     8     3     4 1   
     9     3    34 1   
    10     4    20 2   
    11     4    26 1   
    12     5     6 1   
    13     5     9 ar  
    14     5    18 ar  
    15     6     7 1   
    16     6     8 1   
    17     6    35 1   
    18     7    36 1   
    19     7    37 1   
    20     7    38 1   
    21     8    39 1   
    22     8    40 1   
    23     8    41 1   
    24     9    10 ar  
    25     9    42 1   
    26    10    12 ar  
    27    10    52 1   
    28    11    13 ar  
    29    11    16 ar  
    30    11    52 1   
    31    12    17 ar  
    32    13    14 ar  
    33    13    43 1   
    34    14    27 ar  
    35    14    44 1   
    36    15    16 ar  
    37    15    27 ar  
    38    15    45 1   
    39    16    46 1   
    40    17    18 ar  
    41    17    47 1   
    42    18    24 1   
    43    19    20 1   
    44    19    24 1   
    45    19    28 2   
    46    20    21 1   
    47    21    25 2   
    48    21    29 1   
    49    22    23 2   
    50    22    26 1   
    51    22    48 1   
    52    23    49 1   
    53    24    50 1   
    54    25    26 1   
    55    29    51 1   
@<TRIPOS>SUBSTRUCTURE
     1 YMH         1 TEMP              0 ****  ****    0 ROOT
