@<TRIPOS>MOLECULE
YMH
   52    55     1     0     0
SMALL
No Charge or Current Charge


@<TRIPOS>ATOM
      1 C1          24.6730   -21.7290    20.7090 c3         1 YMH      -0.046800
      2 C10         33.9830   -21.6650    21.2970 cc         1 YMH      -0.076000
      3 C11         32.6380   -21.9040    21.4830 cd         1 YMH      -0.098000
      4 C12         32.2640   -22.1670    22.8350 cd         1 YMH       0.002000
      5 C13         26.4520   -23.6970    24.1800 ca         1 YMH      -0.093300
      6 C14         27.0510   -24.3890    25.4220 c3         1 YMH      -0.017400
      7 C15         26.4400   -25.7830    25.7040 c3         1 YMH      -0.085600
      8 C16         26.9490   -23.4680    26.6550 c3         1 YMH      -0.085600
      9 C17         25.0610   -23.7650    23.9440 ca         1 YMH      -0.096000
     10 C18         24.4860   -23.1520    22.8230 ca         1 YMH       0.069100
     11 C19         22.5780   -24.1120    21.7020 ca         1 YMH       0.175100
     12 C2          25.2860   -22.4270    21.9200 ca         1 YMH      -0.063300
     13 C20         21.2220   -23.9890    21.3820 ca         1 YMH      -0.222000
     14 C21         20.6640   -24.8590    20.4360 ca         1 YMH       0.360400
     15 C22         22.6900   -25.9410    20.1280 ca         1 YMH       0.360400
     16 C23         23.3270   -25.1130    21.0620 ca         1 YMH      -0.222000
     17 C3          26.6700   -22.3380    22.1540 ca         1 YMH      -0.102000
     18 C4          27.2660   -22.9690    23.2700 ca         1 YMH      -0.017000
     19 C5          29.7360   -22.5410    22.7030 c          1 YMH       0.670300
     20 C6          31.0430   -22.4410    23.3890 cc         1 YMH      -0.413800
     21 C7          31.3410   -22.6010    24.7620 cc         1 YMH       0.634900
     22 C8          34.5120   -21.9490    23.7290 cd         1 YMH      -0.073000
     23 C9          34.9010   -21.6900    22.4140 cc         1 YMH      -0.160000
     24 N1          28.6630   -22.8470    23.5250 ns         1 YMH      -0.163000
     25 N2          32.5920   -22.4600    25.1270 nd         1 YMH      -0.675100
     26 N3          33.1480   -22.1880    23.8970 na         1 YMH       0.334400
     27 N4          21.3800   -25.8230    19.8130 nb         1 YMH      -0.689000
     28 O1          29.6230   -22.3810    21.4950 o          1 YMH      -0.612100
     29 O2          30.4360   -22.8790    25.6830 oh         1 YMH      -0.609600
     30 H3          24.4060   -22.4550    19.9330 hc         1 YMH       0.049367
     31 H1          23.7640   -21.1820    20.9850 hc         1 YMH       0.049367
     32 H2          25.3650   -21.0060    20.2620 hc         1 YMH       0.049367
     33 H9          34.3710   -21.4550    20.3040 ha         1 YMH       0.130000
     34 H10         31.9340   -21.8900    20.6580 ha         1 YMH       0.166000
     35 H11         28.1170   -24.5830    25.2570 hc         1 YMH       0.055700
     36 H13         27.0190   -26.3030    26.4760 hc         1 YMH       0.036200
     37 H14         25.4060   -25.7090    26.0600 hc         1 YMH       0.036200
     38 H12         26.4550   -26.4010    24.7980 hc         1 YMH       0.036200
     39 H17         27.4250   -23.9310    27.5270 hc         1 YMH       0.036200
     40 H15         27.4480   -22.5100    26.4640 hc         1 YMH       0.036200
     41 H16         25.9000   -23.2630    26.9030 hc         1 YMH       0.036200
     42 H18         24.4080   -24.2950    24.6310 ha         1 YMH       0.129000
     43 H19         20.6070   -23.2300    21.8560 ha         1 YMH       0.137000
     44 H20         19.6110   -24.7850    20.1670 h4         1 YMH       0.017600
     45 H21         23.2430   -26.7260    19.6140 h4         1 YMH       0.017600
     46 H22         24.3810   -25.2610    21.2750 ha         1 YMH       0.137000
     47 H4          27.2710   -21.7520    21.4670 ha         1 YMH       0.134000
     48 H7          35.1540   -21.9790    24.6000 h4         1 YMH       0.163000
     49 H8          35.9490   -21.4940    22.2040 ha         1 YMH       0.138000
     50 H5          28.9180   -22.9990    24.4920 hn         1 YMH       0.173000
     51 H6          30.9850   -22.9100    26.4910 ho         1 YMH       0.494000
     52 O3          23.1290   -23.2590    22.6320 os         1 YMH      -0.246200
@<TRIPOS>BOND
     1     1    12 1   
     2     1    30 1   
     3     1    31 1   
     4     1    32 1   
     5     2     3 2   
     6     2    23 1   
     7     2    33 1   
     8     3     4 1   
     9     3    34 1   
    10     4    20 2   
    11     4    26 1   
    12     5     6 1   
    13     5     9 ar  
    14     5    18 ar  
    15     6     7 1   
    16     6     8 1   
    17     6    35 1   
    18     7    36 1   
    19     7    37 1   
    20     7    38 1   
    21     8    39 1   
    22     8    40 1   
    23     8    41 1   
    24     9    10 ar  
    25     9    42 1   
    26    10    12 ar  
    27    10    52 1   
    28    11    13 ar  
    29    11    16 ar  
    30    11    52 1   
    31    12    17 ar  
    32    13    14 ar  
    33    13    43 1   
    34    14    27 ar  
    35    14    44 1   
    36    15    16 ar  
    37    15    27 ar  
    38    15    45 1   
    39    16    46 1   
    40    17    18 ar  
    41    17    47 1   
    42    18    24 1   
    43    19    20 1   
    44    19    24 1   
    45    19    28 2   
    46    20    21 1   
    47    21    25 2   
    48    21    29 1   
    49    22    23 2   
    50    22    26 1   
    51    22    48 1   
    52    23    49 1   
    53    24    50 1   
    54    25    26 1   
    55    29    51 1   
@<TRIPOS>SUBSTRUCTURE
     1 YMH         1 TEMP              0 ****  ****    0 ROOT
