@<TRIPOS>MOLECULE
YMI
   24    25     1     0     0
SMALL
abcg2


@<TRIPOS>ATOM
      1 C10        -22.3570    11.8900   -18.5500 ca         1 YMI      -0.082000
      2 C13        -21.3050    14.0240   -18.6270 ca         1 YMI       0.138000
      3 C15        -22.2860    14.5660   -17.8190 ca         1 YMI      -0.160500
      4 C1         -25.9010     9.8940   -16.9240 cc         1 YMI      -0.181600
      5 C14        -21.3210    12.6940   -18.9990 ca         1 YMI      -0.160500
      6 C3         -24.7200    10.1950   -17.5700 cd         1 YMI      -0.218000
      7 C5         -24.4750    11.5470   -17.2900 cd         1 YMI       0.253500
      8 C7         -23.3720    12.3990   -17.7390 ca         1 YMI      -0.077500
      9 C9         -23.3140    13.7480   -17.3800 ca         1 YMI      -0.082000
     10 F16        -20.3130    14.8150   -19.0670 f          1 YMI      -0.200000
     11 N2         -26.2840    11.0370   -16.3060 na         1 YMI       0.162800
     12 N4         -25.4380    12.0350   -16.5170 nc         1 YMI      -0.582800
     13 O11        -27.7690     8.5650   -16.3760 o          1 YMI      -0.708000
     14 O8         -26.0530     7.6420   -17.4750 o          1 YMI      -0.708000
     15 H19        -22.3670    10.8490   -18.8460 ha         1 YMI       0.127500
     16 H25        -22.2510    15.6100   -17.5380 ha         1 YMI       0.116000
     17 H22        -27.3500    12.2930   -15.0850 h1         1 YMI       0.049033
     18 H23        -28.3640    11.2370   -16.0840 h1         1 YMI       0.049033
     19 H21        -27.5250    10.5770   -14.6780 h1         1 YMI       0.049033
     20 H24        -20.5400    12.2890   -19.6300 ha         1 YMI       0.116000
     21 H17        -24.1320     9.5160   -18.1660 ha         1 YMI       0.143000
     22 H18        -24.0860    14.1690   -16.7510 ha         1 YMI       0.127500
     23 C12        -27.4540    11.2910   -15.4920 c3         1 YMI       0.091900
     24 C6         -26.6480     8.5800   -16.9170 c          1 YMI       0.737600
@<TRIPOS>BOND
     1     1     5 ar  
     2     1     8 ar  
     3     1    15 1   
     4     2     3 ar  
     5     2     5 ar  
     6     2    10 1   
     7     3     9 ar  
     8     3    16 1   
     9     4     6 2   
    10     4    11 1   
    11     4    24 1   
    12     5    20 1   
    13     6     7 1   
    14     6    21 1   
    15     7     8 1   
    16     7    12 2   
    17     8     9 ar  
    18     9    22 1   
    19    11    12 1   
    20    11    23 1   
    21    13    24 1   
    22    14    24 1   
    23    17    23 1   
    24    18    23 1   
    25    19    23 1   
@<TRIPOS>SUBSTRUCTURE
     1 YMI         1 TEMP              0 ****  ****    0 ROOT
