@<TRIPOS>MOLECULE
YMI
   24    25     1     0     0
SMALL
No Charge or Current Charge


@<TRIPOS>ATOM
      1 C10        -22.3530    11.8590   -18.4940 ca         1 YMI      -0.082000
      2 C13        -21.2130    14.0020   -18.6460 ca         1 YMI       0.138000
      3 C15        -22.2390    14.6040   -17.9060 ca         1 YMI      -0.160500
      4 C1         -25.9610     9.9100   -16.9460 cc         1 YMI      -0.181600
      5 C14        -21.2660    12.6330   -18.9400 ca         1 YMI      -0.160500
      6 C3         -24.8140    10.2850   -17.5960 cd         1 YMI      -0.218000
      7 C5         -24.5440    11.6330   -17.2710 cd         1 YMI       0.253500
      8 C7         -23.4030    12.4500   -17.7530 ca         1 YMI      -0.077500
      9 C9         -23.3270    13.8330   -17.4590 ca         1 YMI      -0.082000
     10 F16        -20.1680    14.7420   -19.0740 f          1 YMI      -0.200000
     11 N2         -26.3270    11.0640   -16.2570 na         1 YMI       0.162800
     12 N4         -25.4600    12.1250   -16.4550 nc         1 YMI      -0.582800
     13 O11        -27.6250     8.3710   -16.3830 o          1 YMI      -0.708000
     14 O8         -26.0740     7.7060   -17.7050 o          1 YMI      -0.708000
     15 H19        -22.3680    10.7980   -18.7290 ha         1 YMI       0.127500
     16 H25        -22.1920    15.6660   -17.6780 ha         1 YMI       0.116000
     17 H22        -27.5250    12.2570   -14.9790 h1         1 YMI       0.049033
     18 H23        -28.4150    11.0580   -15.9600 h1         1 YMI       0.049033
     19 H21        -27.4460    10.5230   -14.5530 h1         1 YMI       0.049033
     20 H24        -20.4650    12.1700   -19.5110 ha         1 YMI       0.116000
     21 H17        -24.2260     9.6500   -18.2490 ha         1 YMI       0.143000
     22 H18        -24.1140    14.3190   -16.8850 ha         1 YMI       0.127500
     23 C12        -27.5010    11.2370   -15.3830 c3         1 YMI       0.091900
     24 C6         -26.5990     8.5690   -17.0150 c          1 YMI       0.737600
@<TRIPOS>BOND
     1     1     5 ar  
     2     1     8 ar  
     3     1    15 1   
     4     2     3 ar  
     5     2     5 ar  
     6     2    10 1   
     7     3     9 ar  
     8     3    16 1   
     9     4     6 2   
    10     4    11 1   
    11     4    24 1   
    12     5    20 1   
    13     6     7 1   
    14     6    21 1   
    15     7     8 1   
    16     7    12 2   
    17     8     9 ar  
    18     9    22 1   
    19    11    12 1   
    20    11    23 1   
    21    13    24 1   
    22    14    24 1   
    23    17    23 1   
    24    18    23 1   
    25    19    23 1   
@<TRIPOS>SUBSTRUCTURE
     1 YMI         1 TEMP              0 ****  ****    0 ROOT
