@<TRIPOS>MOLECULE
YML
   39    38     1     0     0
SMALL
No Charge or Current Charge


@<TRIPOS>ATOM
      1 C8           4.4620     0.0880    -0.6260 c3         1 YML      -0.063700
      2 C4          -0.7440    -0.3900     0.4160 c3         1 YML      -0.185700
      3 C3          -2.0700     0.3410     0.1080 c          1 YML       0.622100
      4 C7           2.9940     0.6150    -0.6730 c3         1 YML      -0.077400
      5 C6           1.8730    -0.2860    -0.0490 c3         1 YML      -0.097700
      6 C2          -2.6440     0.1380    -1.2690 c3         1 YML      -0.531400
      7 C5           0.4710     0.4190    -0.1370 c3         1 YML       0.184300
      8 C9           4.9350    -0.2340     0.8200 c3         1 YML       0.160600
      9 P1          -4.0720    -0.8640    -0.8530 p5         1 YML       1.256400
     10 O1P         -5.0380    -0.8600    -1.9940 o          1 YML      -0.822500
     11 O2P         -3.6280    -2.2340    -0.4550 o          1 YML      -0.822500
     12 OC3         -2.5060     1.2340     0.8210 o          1 YML      -0.555100
     13 OC5          0.5340     1.6730     0.5510 oh         1 YML      -0.640000
     14 CAB          1.8660    -1.7030    -0.6890 c3         1 YML      -0.084100
     15 CAA          5.4060     1.0960    -1.3320 c3         1 YML      -0.081100
     16 OC9          6.2510    -0.8030     0.8120 oh         1 YML      -0.670000
     17 H8           4.5110    -0.8390    -1.2080 hc         1 YML       0.056700
     18 H4          -0.7820    -1.3090    -0.1760 hc         1 YML       0.048700
     19 H71          2.9850     1.5940    -0.1780 hc         1 YML       0.049200
     20 H72          2.7300     0.8070    -1.7210 hc         1 YML       0.049200
     21 H6           2.1040    -0.4130     1.0150 hc         1 YML       0.044700
     22 H21         -3.0020     1.0700    -1.7160 hc         1 YML       0.067200
     23 H22         -2.0110    -0.4600    -1.9310 hc         1 YML       0.067200
     24 H5           0.2750     0.6040    -1.2030 h1         1 YML       0.075700
     25 H91          4.9210     0.6860     1.4190 h1         1 YML       0.021200
     26 H92          4.2390    -0.9440     1.2840 h1         1 YML       0.021200
     27 HP1         -4.5720    -0.1360     0.2550 hp         1 YML      -0.196400
     28 HOC5         0.6910     1.4690     1.4960 ho         1 YML       0.434000
     29 HAB1         2.8440    -2.1890    -0.6000 hc         1 YML       0.030367
     30 HAB2         1.1550    -2.3680    -0.1870 hc         1 YML       0.030367
     31 HAB3         1.6020    -1.6500    -1.7520 hc         1 YML       0.030367
     32 HAA1         6.4260     0.6990    -1.4060 hc         1 YML       0.031033
     33 HAA2         5.0590     1.3040    -2.3510 hc         1 YML       0.031033
     34 HAA3         5.4460     2.0440    -0.7830 hc         1 YML       0.031033
     35 HOC9         6.4910    -0.9790     1.7480 ho         1 YML       0.437000
     36 CAC         -0.6380    -0.7910     1.9140 c3         1 YML      -0.083100
     37 HAC1        -0.5840     0.0900     2.5640 hc         1 YML       0.043033
     38 HAC2        -1.5160    -1.3760     2.2130 hc         1 YML       0.043033
     39 HAC3         0.2480    -1.4100     2.0980 hc         1 YML       0.043033
@<TRIPOS>BOND
     1     1     4 1   
     2     1     8 1   
     3     1    15 1   
     4     1    17 1   
     5     2     3 1   
     6     2     7 1   
     7     2    18 1   
     8     2    36 1   
     9     3     6 1   
    10     3    12 2   
    11     4     5 1   
    12     4    19 1   
    13     4    20 1   
    14     5     7 1   
    15     5    14 1   
    16     5    21 1   
    17     6     9 1   
    18     6    22 1   
    19     6    23 1   
    20     7    13 1   
    21     7    24 1   
    22     8    16 1   
    23     8    25 1   
    24     8    26 1   
    25     9    10 1   
    26     9    11 1   
    27     9    27 1   
    28    13    28 1   
    29    14    29 1   
    30    14    30 1   
    31    14    31 1   
    32    15    32 1   
    33    15    33 1   
    34    15    34 1   
    35    16    35 1   
    36    36    37 1   
    37    36    38 1   
    38    36    39 1   
@<TRIPOS>SUBSTRUCTURE
     1 YML         1 TEMP              0 ****  ****    0 ROOT
