@<TRIPOS>MOLECULE
YML
   39    38     1     0     0
SMALL
bcc


@<TRIPOS>ATOM
      1 C8           4.5050     0.1140    -0.2070 c3         1 YML      -0.063700
      2 C4          -0.5690    -0.5240    -0.4840 c3         1 YML      -0.185700
      3 C3          -1.8640     0.2610    -0.6150 c          1 YML       0.622100
      4 C7           3.1580     0.6630    -0.6880 c3         1 YML      -0.077400
      5 C6           1.9960    -0.3400    -0.6020 c3         1 YML      -0.097700
      6 C2          -3.1520    -0.5030    -0.6070 c3         1 YML      -0.373600
      7 C5           0.6570     0.3980    -0.4430 c3         1 YML       0.161100
      8 C9           4.5500     0.1460     1.3140 c3         1 YML       0.137400
      9 P1          -4.1370    -0.1530     0.9280 p5         1 YML       1.098600
     10 O1P         -5.4020    -0.9750     0.8630 o          1 YML      -0.822500
     11 O2P         -3.2310    -0.2370     2.1330 o          1 YML      -0.822500
     12 OC3         -1.8740     1.4640    -0.7750 o          1 YML      -0.555100
     13 OC5          0.6460     1.1880     0.7310 oh         1 YML      -0.577800
     14 CAB          2.0100    -1.2560    -1.8240 c3         1 YML      -0.084100
     15 CAA          5.6620     0.9010    -0.8140 c3         1 YML      -0.081100
     16 OC9          5.7040    -0.5220     1.7740 oh         1 YML      -0.607800
     17 H8           4.5960    -0.9320    -0.5250 hc         1 YML       0.056700
     18 H4          -0.5350    -1.1050    -1.4150 hc         1 YML       0.048700
     19 H71          2.9260     1.5640    -0.1130 hc         1 YML       0.049200
     20 H72          3.2500     0.9900    -1.7290 hc         1 YML       0.049200
     21 H6           2.1390    -0.9740     0.2840 hc         1 YML       0.044700
     22 H21         -3.7640    -0.1830    -1.4540 hc         1 YML       0.067200
     23 H22         -3.0110    -1.5820    -0.6840 hc         1 YML       0.067200
     24 H5           0.5750     1.1070    -1.2740 h1         1 YML       0.075700
     25 H91          4.5370     1.1970     1.6400 h1         1 YML       0.021200
     26 H92          3.6400    -0.3170     1.7200 h1         1 YML       0.021200
     27 HP1         -4.4570     1.2200     0.6890 hp         1 YML      -0.196400
     28 HOC5         0.8440     0.6190     1.4810 ho         1 YML       0.395000
     29 HAB1         3.0120    -1.6490    -1.9990 hc         1 YML       0.030367
     30 HAB2         1.3460    -2.1140    -1.7150 hc         1 YML       0.030367
     31 HAB3         1.7120    -0.7130    -2.7250 hc         1 YML       0.030367
     32 HAA1         6.6280     0.5490    -0.4550 hc         1 YML       0.031033
     33 HAA2         5.6600     0.8160    -1.9020 hc         1 YML       0.031033
     34 HAA3         5.5800     1.9630    -0.5670 hc         1 YML       0.031033
     35 HOC9         5.7340    -0.4430     2.7310 ho         1 YML       0.398000
     36 CAC         -0.5870    -1.5270     0.6710 c3         1 YML      -0.083100
     37 HAC1        -0.6560    -1.0330     1.6390 hc         1 YML       0.043033
     38 HAC2        -1.4330    -2.2070     0.6060 hc         1 YML       0.043033
     39 HAC3         0.3160    -2.1380     0.6550 hc         1 YML       0.043033
@<TRIPOS>BOND
     1     1     4 1   
     2     1     8 1   
     3     1    15 1   
     4     1    17 1   
     5     2     3 1   
     6     2     7 1   
     7     2    18 1   
     8     2    36 1   
     9     3     6 1   
    10     3    12 2   
    11     4     5 1   
    12     4    19 1   
    13     4    20 1   
    14     5     7 1   
    15     5    14 1   
    16     5    21 1   
    17     6     9 1   
    18     6    22 1   
    19     6    23 1   
    20     7    13 1   
    21     7    24 1   
    22     8    16 1   
    23     8    25 1   
    24     8    26 1   
    25     9    10 1   
    26     9    11 1   
    27     9    27 1   
    28    13    28 1   
    29    14    29 1   
    30    14    30 1   
    31    14    31 1   
    32    15    32 1   
    33    15    33 1   
    34    15    34 1   
    35    16    35 1   
    36    36    37 1   
    37    36    38 1   
    38    36    39 1   
@<TRIPOS>SUBSTRUCTURE
     1 YML         1 TEMP              0 ****  ****    0 ROOT
