@<TRIPOS>MOLECULE
YMO
   48    51     1     0     0
SMALL
No Charge or Current Charge


@<TRIPOS>ATOM
      1 C10          6.0610    11.7170    27.4430 ca         1 YMO      -0.111500
      2 C11          6.4160    10.4380    27.9000 ca         1 YMO      -0.104000
      3 C13          7.9970    10.2280    26.0590 ca         1 YMO      -0.097000
      4 C16         12.5830    14.0030    20.0210 cc         1 YMO       0.805900
      5 C19         15.7020    14.8390    18.7930 c          1 YMO       0.564000
      6 C21         15.7290    15.6440    17.5620 cc         1 YMO      -0.393200
      7 C22         14.6310    16.0950    16.8460 cd         1 YMO       0.189800
      8 C24         13.3620    15.0060    18.4920 cd         1 YMO       0.688400
      9 C26         14.7140    16.9160    15.5840 c3         1 YMO      -0.057200
     10 C27         14.4330    16.1020    14.3000 c3         1 YMO      -0.072400
     11 C28         15.4500    14.9700    14.0450 c3         1 YMO      -0.095100
     12 C12          7.3850     9.6940    27.2070 ca         1 YMO      -0.111500
     13 C2           9.1900    14.0110    23.1070 ca         1 YMO       0.169000
     14 C3           9.5480    13.1780    22.0290 ca         1 YMO      -0.144300
     15 C4           9.2850    11.7980    22.1180 ca         1 YMO      -0.079000
     16 C5           8.6740    11.2630    23.2660 ca         1 YMO      -0.114000
     17 C6           8.3070    12.0900    24.3580 cp         1 YMO      -0.008000
     18 C7           8.5790    13.4760    24.2520 ca         1 YMO      -0.141000
     19 C8           7.6550    11.5190    25.5800 cp         1 YMO      -0.040000
     20 C9           6.6730    12.2510    26.2970 ca         1 YMO      -0.097000
     21 N15         11.6480    13.4740    20.8180 nu         1 YMO      -0.917100
     22 N17         13.8630    13.8480    20.2770 nd         1 YMO      -0.570800
     23 N18         14.4100    14.5520    19.2070 n          1 YMO      -0.061500
     24 N23         13.3720    15.7510    17.3560 na         1 YMO      -0.763900
     25 N25         12.1830    14.7050    18.9370 nc         1 YMO      -0.772000
     26 O20         16.7060    14.4650    19.3840 o          1 YMO      -0.472000
     27 H33          5.3080    12.2940    27.9760 ha         1 YMO       0.113500
     28 H34          5.9430    10.0240    28.7880 ha         1 YMO       0.114000
     29 H36          8.7540     9.6400    25.5460 ha         1 YMO       0.114500
     30 H40         16.7310    15.8770    17.2200 ha         1 YMO       0.223000
     31 H43         14.0000    17.7470    15.6390 hc         1 YMO       0.067200
     32 H42         15.7050    17.3800    15.5030 hc         1 YMO       0.067200
     33 H45         13.4240    15.6750    14.3510 hc         1 YMO       0.045700
     34 H44         14.4420    16.7840    13.4400 hc         1 YMO       0.045700
     35 H48         15.2250    14.4600    13.1010 hc         1 YMO       0.041033
     36 H47         16.4700    15.3710    13.9830 hc         1 YMO       0.041033
     37 H46         15.4190    14.2260    14.8500 hc         1 YMO       0.041033
     38 H35          7.6640     8.7030    27.5600 ha         1 YMO       0.113500
     39 H38          9.7590    13.2780    19.8910 h1         1 YMO       0.074200
     40 H37         10.0200    14.8250    20.7060 h1         1 YMO       0.074200
     41 H29          9.5520    11.1370    21.2960 ha         1 YMO       0.122000
     42 H30          8.4700    10.1960    23.3020 ha         1 YMO       0.121000
     43 H31          8.3280    14.1460    25.0700 ha         1 YMO       0.133000
     44 H32          6.3730    13.2380    25.9540 ha         1 YMO       0.114500
     45 H39         12.0410    13.0570    21.6550 hn         1 YMO       0.500000
     46 H41         12.4920    16.0180    16.9330 hn         1 YMO       0.535000
     47 F1           9.4330    15.3410    23.0560 f          1 YMO      -0.184000
     48 C14         10.2080    13.7440    20.7800 c3         1 YMO       0.285100
@<TRIPOS>BOND
     1     1     2 ar  
     2     1    20 ar  
     3     1    27 1   
     4     2    12 ar  
     5     2    28 1   
     6     3    12 ar  
     7     3    19 ar  
     8     3    29 1   
     9     4    21 1   
    10     4    22 2   
    11     4    25 1   
    12     5     6 1   
    13     5    23 1   
    14     5    26 2   
    15     6     7 2   
    16     6    30 1   
    17     7     9 1   
    18     7    24 1   
    19     8    23 1   
    20     8    24 1   
    21     8    25 2   
    22     9    10 1   
    23     9    31 1   
    24     9    32 1   
    25    10    11 1   
    26    10    33 1   
    27    10    34 1   
    28    11    35 1   
    29    11    36 1   
    30    11    37 1   
    31    12    38 1   
    32    13    14 ar  
    33    13    18 ar  
    34    13    47 1   
    35    14    15 ar  
    36    14    48 1   
    37    15    16 ar  
    38    15    41 1   
    39    16    17 ar  
    40    16    42 1   
    41    17    18 ar  
    42    17    19 1   
    43    18    43 1   
    44    19    20 ar  
    45    20    44 1   
    46    21    45 1   
    47    21    48 1   
    48    22    23 1   
    49    24    46 1   
    50    39    48 1   
    51    40    48 1   
@<TRIPOS>SUBSTRUCTURE
     1 YMO         1 TEMP              0 ****  ****    0 ROOT
