@<TRIPOS>MOLECULE
YMO
   48    51     1     0     0
SMALL
abcg2


@<TRIPOS>ATOM
      1 C10          6.9920    12.5610    26.8070 ca         1 YMO      -0.111500
      2 C11          7.9930    13.1270    27.5850 ca         1 YMO      -0.104000
      3 C13          9.4170    13.2350    25.6470 ca         1 YMO      -0.097000
      4 C16         11.5920    12.0670    18.6970 cc         1 YMO       0.805900
      5 C19         14.9210    12.8700    18.3570 c          1 YMO       0.564000
      6 C21         15.3670    14.2410    18.3520 cc         1 YMO      -0.393200
      7 C22         14.5190    15.2950    18.4640 cd         1 YMO       0.189800
      8 C24         12.6880    13.8250    18.6120 cd         1 YMO       0.688400
      9 C26         14.9630    16.7210    18.4320 c3         1 YMO      -0.057200
     10 C27         14.5510    17.4540    17.1490 c3         1 YMO      -0.072400
     11 C28         15.1510    16.8460    15.8920 c3         1 YMO      -0.095100
     12 C12          9.2070    13.4630    26.9990 ca         1 YMO      -0.111500
     13 C2           7.8430    12.3700    21.1610 ca         1 YMO       0.169000
     14 C3           9.0610    11.9360    20.6590 ca         1 YMO      -0.144300
     15 C4          10.0750    11.7430    21.5880 ca         1 YMO      -0.079000
     16 C5           9.8760    11.9800    22.9410 ca         1 YMO      -0.114000
     17 C6           8.6420    12.4190    23.4170 cp         1 YMO      -0.008000
     18 C7           7.6120    12.6140    22.4970 ca         1 YMO      -0.141000
     19 C8           8.4180    12.6660    24.8560 cp         1 YMO      -0.040000
     20 C9           7.2030    12.3320    25.4560 ca         1 YMO      -0.097000
     21 N15         10.5260    11.2370    18.7690 nu         1 YMO      -0.917100
     22 N17         12.8240    11.6230    18.5530 nd         1 YMO      -0.570800
     23 N18         13.5350    12.7780    18.4960 n          1 YMO      -0.061500
     24 N23         13.1780    15.0790    18.5900 na         1 YMO      -0.763900
     25 N25         11.4520    13.4200    18.7410 nc         1 YMO      -0.772000
     26 O20         15.6090    11.8760    18.2550 o          1 YMO      -0.472000
     27 H33          6.0450    12.2890    27.2550 ha         1 YMO       0.113500
     28 H34          7.8290    13.3060    28.6390 ha         1 YMO       0.114000
     29 H36         10.3610    13.5220    25.2010 ha         1 YMO       0.114500
     30 H40         16.4270    14.4220    18.2500 ha         1 YMO       0.223000
     31 H43         14.5460    17.2410    19.3000 hc         1 YMO       0.067200
     32 H42         16.0480    16.7470    18.5350 hc         1 YMO       0.067200
     33 H45         13.4620    17.4870    17.0680 hc         1 YMO       0.045700
     34 H44         14.8770    18.4920    17.2500 hc         1 YMO       0.045700
     35 H48         14.8930    17.4390    15.0140 hc         1 YMO       0.041033
     36 H47         16.2400    16.8050    15.9560 hc         1 YMO       0.041033
     37 H46         14.7920    15.8310    15.7200 hc         1 YMO       0.041033
     38 H35          9.9910    13.9130    27.5940 ha         1 YMO       0.113500
     39 H38          8.5050    10.9340    18.8500 h1         1 YMO       0.074200
     40 H37          8.9750    12.5970    18.6230 h1         1 YMO       0.074200
     41 H29         11.0430    11.3870    21.2600 ha         1 YMO       0.122000
     42 H30         10.6890    11.7980    23.6310 ha         1 YMO       0.121000
     43 H31          6.6390    12.9720    22.8110 ha         1 YMO       0.133000
     44 H32          6.4190    11.8700    24.8680 ha         1 YMO       0.114500
     45 H39         10.7330    10.2580    18.8800 hn         1 YMO       0.500000
     46 H41         12.5330    15.8510    18.6920 hn         1 YMO       0.535000
     47 F1           6.8320    12.5670    20.2950 f          1 YMO      -0.184000
     48 C14          9.2240    11.6890    19.1740 c3         1 YMO       0.285100
@<TRIPOS>BOND
     1     1     2 ar  
     2     1    20 ar  
     3     1    27 1   
     4     2    12 ar  
     5     2    28 1   
     6     3    12 ar  
     7     3    19 ar  
     8     3    29 1   
     9     4    21 1   
    10     4    22 2   
    11     4    25 1   
    12     5     6 1   
    13     5    23 1   
    14     5    26 2   
    15     6     7 2   
    16     6    30 1   
    17     7     9 1   
    18     7    24 1   
    19     8    23 1   
    20     8    24 1   
    21     8    25 2   
    22     9    10 1   
    23     9    31 1   
    24     9    32 1   
    25    10    11 1   
    26    10    33 1   
    27    10    34 1   
    28    11    35 1   
    29    11    36 1   
    30    11    37 1   
    31    12    38 1   
    32    13    14 ar  
    33    13    18 ar  
    34    13    47 1   
    35    14    15 ar  
    36    14    48 1   
    37    15    16 ar  
    38    15    41 1   
    39    16    17 ar  
    40    16    42 1   
    41    17    18 ar  
    42    17    19 1   
    43    18    43 1   
    44    19    20 ar  
    45    20    44 1   
    46    21    45 1   
    47    21    48 1   
    48    22    23 1   
    49    24    46 1   
    50    39    48 1   
    51    40    48 1   
@<TRIPOS>SUBSTRUCTURE
     1 YMO         1 TEMP              0 ****  ****    0 ROOT
