@<TRIPOS>MOLECULE
YMT
   43    46     1     0     0
SMALL
abcg2


@<TRIPOS>ATOM
      1 C10        -18.3160    13.9540   -12.6100 ca         1 YMT      -0.142000
      2 C11        -19.3390    13.7480   -11.7220 ca         1 YMT      -0.061600
      3 O14        -20.2730    12.5080    -9.9550 o          1 YMT      -0.720500
      4 C15        -20.3810    14.7110   -11.7230 ca         1 YMT      -0.103000
      5 C16        -20.3410    15.8230   -12.6120 ca         1 YMT      -0.075000
      6 C17        -19.2700    15.9970   -13.5110 ca         1 YMT      -0.098000
      7 C20        -21.5670    14.8990   -11.0180 cc         1 YMT      -0.152100
      8 C22        -22.9670    17.7250    -9.9780 ca         1 YMT      -0.105300
      9 C23        -22.7430    19.0410   -10.3700 ca         1 YMT      -0.081000
     10 C24        -22.3900    20.0030    -9.4330 ca         1 YMT      -0.119000
     11 C25        -22.2570    19.6570    -8.0950 ca         1 YMT      -0.108000
     12 C26        -22.4810    18.3450    -7.6960 ca         1 YMT      -0.119000
     13 C27        -22.8360    17.3860    -8.6340 ca         1 YMT      -0.081000
     14 C2         -14.7370    15.4950   -15.9460 ca         1 YMT      -0.089300
     15 C3         -15.9930    15.4350   -16.5390 ca         1 YMT      -0.116000
     16 C4         -17.1360    15.2930   -15.7650 ca         1 YMT       0.128000
     17 CL5        -18.6560    15.1710   -16.5980 cl         1 YMT      -0.211000
     18 C6         -17.0810    15.2090   -14.3760 cp         1 YMT       0.008000
     19 C7         -15.8100    15.2540   -13.7980 ca         1 YMT      -0.090000
     20 C8         -14.6630    15.3930   -14.5590 ca         1 YMT      -0.116000
     21 C9         -18.2670    15.0630   -13.5030 cp         1 YMT      -0.038000
     22 C12        -19.3360    12.5550   -10.7760 c          1 YMT       0.717600
     23 O13        -18.4020    11.7400   -10.8980 o          1 YMT      -0.720500
     24 N18        -21.4080    16.6140   -12.4550 nc         1 YMT      -0.341400
     25 N19        -22.1130    16.0210   -11.5010 na         1 YMT       0.119500
     26 H34        -17.5040    13.2380   -12.6410 ha         1 YMT       0.130000
     27 H36        -19.2400    16.8580   -14.1680 ha         1 YMT       0.108000
     28 H37        -22.0410    14.3290   -10.2390 h4         1 YMT       0.246000
     29 H38        -23.8410    17.0930   -11.8450 h1         1 YMT       0.063200
     30 H39        -23.9400    15.8960   -10.5560 h1         1 YMT       0.063200
     31 H40        -22.8480    19.3180   -11.4120 ha         1 YMT       0.120000
     32 H41        -22.2200    21.0250    -9.7480 ha         1 YMT       0.108000
     33 H42        -21.9820    20.4070    -7.3640 ha         1 YMT       0.103000
     34 H43        -22.3840    18.0690    -6.6540 ha         1 YMT       0.108000
     35 H44        -23.0140    16.3640    -8.3180 ha         1 YMT       0.120000
     36 H29        -13.2100    16.7350   -16.8010 hc         1 YMT       0.034700
     37 H28        -12.6610    15.1240   -16.3700 hc         1 YMT       0.034700
     38 H30        -13.6580    15.3640   -17.8060 hc         1 YMT       0.034700
     39 H31        -16.0830    15.4900   -17.6170 ha         1 YMT       0.113000
     40 H32        -15.7290    15.1860   -12.7200 ha         1 YMT       0.132000
     41 H33        -13.6990    15.4270   -14.0670 ha         1 YMT       0.106000
     42 C21        -23.3100    16.6690   -10.9940 c3         1 YMT       0.129900
     43 C1         -13.5030    15.6840   -16.7770 c3         1 YMT      -0.038800
@<TRIPOS>BOND
     1     1     2 ar  
     2     1    21 ar  
     3     1    26 1   
     4     2     4 ar  
     5     2    22 1   
     6     3    22 1   
     7     4     5 ar  
     8     4     7 2   
     9     5     6 ar  
    10     5    24 2   
    11     6    21 ar  
    12     6    27 1   
    13     7    25 1   
    14     7    28 1   
    15     8     9 ar  
    16     8    13 ar  
    17     8    42 1   
    18     9    10 ar  
    19     9    31 1   
    20    10    11 ar  
    21    10    32 1   
    22    11    12 ar  
    23    11    33 1   
    24    12    13 ar  
    25    12    34 1   
    26    13    35 1   
    27    14    15 ar  
    28    14    20 ar  
    29    14    43 1   
    30    15    16 ar  
    31    15    39 1   
    32    16    17 1   
    33    16    18 ar  
    34    18    19 ar  
    35    18    21 1   
    36    19    20 ar  
    37    19    40 1   
    38    20    41 1   
    39    22    23 1   
    40    24    25 1   
    41    25    42 1   
    42    29    42 1   
    43    30    42 1   
    44    36    43 1   
    45    37    43 1   
    46    38    43 1   
@<TRIPOS>SUBSTRUCTURE
     1 YMT         1 TEMP              0 ****  ****    0 ROOT
