@<TRIPOS>MOLECULE
YMT
   43    46     1     0     0
SMALL
No Charge or Current Charge


@<TRIPOS>ATOM
      1 C10        -17.9530    14.1920   -12.4640 ca         1 YMT      -0.142000
      2 C11        -18.9840    14.1180   -11.4920 ca         1 YMT      -0.061600
      3 O14        -19.9200    12.8260    -9.7280 o          1 YMT      -0.720500
      4 C15        -20.0620    15.0150   -11.6590 ca         1 YMT      -0.103000
      5 C16        -20.1380    15.9220   -12.6910 ca         1 YMT      -0.075000
      6 C17        -19.1180    15.9840   -13.6480 ca         1 YMT      -0.098000
      7 C20        -21.2390    15.2330   -10.8850 cc         1 YMT      -0.152100
      8 C22        -23.1430    17.7210    -9.8460 ca         1 YMT      -0.105300
      9 C23        -22.0770    18.6300    -9.6730 ca         1 YMT      -0.081000
     10 C24        -22.0160    19.4430    -8.5280 ca         1 YMT      -0.119000
     11 C25        -23.0190    19.3580    -7.5480 ca         1 YMT      -0.108000
     12 C26        -24.0850    18.4600    -7.7160 ca         1 YMT      -0.119000
     13 C27        -24.1490    17.6460    -8.8610 ca         1 YMT      -0.081000
     14 C2         -14.7090    15.2790   -16.3740 ca         1 YMT      -0.089300
     15 C3         -16.0250    15.1210   -16.8460 ca         1 YMT      -0.116000
     16 C4         -17.1070    15.0600   -15.9500 ca         1 YMT       0.128000
     17 Cl5        -18.7150    14.8060   -16.6320 cl         1 YMT      -0.211000
     18 C6         -16.8910    15.1620   -14.5470 cp         1 YMT       0.008000
     19 C7         -15.5590    15.3120   -14.0900 ca         1 YMT      -0.090000
     20 C8         -14.4820    15.3740   -14.9900 ca         1 YMT      -0.116000
     21 C9         -18.0070    15.1070   -13.5530 cp         1 YMT      -0.038000
     22 C12        -18.9010    13.1210   -10.3390 c          1 YMT       0.717600
     23 O13        -17.8120    12.6280   -10.0740 o          1 YMT      -0.720500
     24 N18        -21.2830    16.7190   -12.6550 nc         1 YMT      -0.341400
     25 N19        -21.9380    16.2560   -11.5100 na         1 YMT       0.119500
     26 H34        -17.1000    13.5220   -12.3870 ha         1 YMT       0.130000
     27 H36        -19.1760    16.7110   -14.4540 ha         1 YMT       0.108000
     28 H37        -21.6180    14.7720    -9.9820 h4         1 YMT       0.246000
     29 H38        -23.6370    17.4220   -11.9180 h1         1 YMT       0.063200
     30 H39        -23.9210    16.0040   -10.9020 h1         1 YMT       0.063200
     31 H40        -21.2950    18.7120   -10.4250 ha         1 YMT       0.120000
     32 H41        -21.1910    20.1400    -8.4010 ha         1 YMT       0.108000
     33 H42        -22.9710    19.9870    -6.6620 ha         1 YMT       0.103000
     34 H43        -24.8640    18.3940    -6.9600 ha         1 YMT       0.108000
     35 H44        -24.9810    16.9550    -8.9800 ha         1 YMT       0.120000
     36 H29        -13.3610    16.3810   -17.6660 hc         1 YMT       0.034700
     37 H28        -12.6220    14.9640   -16.9000 hc         1 YMT       0.034700
     38 H30        -13.7430    14.7520   -18.2500 hc         1 YMT       0.034700
     39 H31        -16.2110    15.0390   -17.9140 ha         1 YMT       0.113000
     40 H32        -15.3650    15.3920   -13.0230 ha         1 YMT       0.132000
     41 H33        -13.4700    15.4970   -14.6090 ha         1 YMT       0.106000
     42 C21        -23.2270    16.8330   -11.0880 c3         1 YMT       0.129900
     43 C1         -13.5450    15.3470   -17.3510 c3         1 YMT      -0.038800
@<TRIPOS>BOND
     1     1     2 ar  
     2     1    21 ar  
     3     1    26 1   
     4     2     4 ar  
     5     2    22 1   
     6     3    22 1   
     7     4     5 ar  
     8     4     7 2   
     9     5     6 ar  
    10     5    24 2   
    11     6    21 ar  
    12     6    27 1   
    13     7    25 1   
    14     7    28 1   
    15     8     9 ar  
    16     8    13 ar  
    17     8    42 1   
    18     9    10 ar  
    19     9    31 1   
    20    10    11 ar  
    21    10    32 1   
    22    11    12 ar  
    23    11    33 1   
    24    12    13 ar  
    25    12    34 1   
    26    13    35 1   
    27    14    15 ar  
    28    14    20 ar  
    29    14    43 1   
    30    15    16 ar  
    31    15    39 1   
    32    16    17 1   
    33    16    18 ar  
    34    18    19 ar  
    35    18    21 1   
    36    19    20 ar  
    37    19    40 1   
    38    20    41 1   
    39    22    23 1   
    40    24    25 1   
    41    25    42 1   
    42    29    42 1   
    43    30    42 1   
    44    36    43 1   
    45    37    43 1   
    46    38    43 1   
@<TRIPOS>SUBSTRUCTURE
     1 YMT         1 TEMP              0 ****  ****    0 ROOT
