@<TRIPOS>MOLECULE
YMW
   36    39     1     0     0
SMALL
No Charge or Current Charge


@<TRIPOS>ATOM
      1 OAV          0.2450     4.0750    14.9370 o          1 YMW      -0.497000
      2 CAN         -0.8510     4.6200    14.8300 c          1 YMW       0.508500
      3 CAO         -1.1670     5.5750    13.7250 cc         1 YMW       0.184500
      4 NAP         -0.3800     5.9500    12.7270 nd         1 YMW      -0.449800
      5 NAQ         -1.1840     6.8500    12.0290 na         1 YMW       0.153800
      6 CAR         -0.6940     7.5150    10.8110 c3         1 YMW       0.083600
      7 CAS         -1.1220     6.7950     9.5170 c3         1 YMW      -0.112100
      8 CAT         -2.4490     7.0140    12.6090 cd         1 YMW      -0.164000
      9 CAU         -2.4080     6.1910    13.6910 cc         1 YMW      -0.117000
     10 CAE         -3.4730     5.9670    14.6400 ca         1 YMW      -0.036000
     11 CAD         -4.7260     6.6040    14.5240 ca         1 YMW      -0.066000
     12 CAC         -5.7500     6.3070    15.4350 ca         1 YMW      -0.129000
     13 CAB         -5.5280     5.3600    16.4420 ca         1 YMW       0.148000
     14 ClAA        -6.8260     4.9490    17.5550 cl         1 YMW      -0.196000
     15 CAW         -4.2820     4.7280    16.5620 ca         1 YMW      -0.147000
     16 CAF         -3.2130     5.0480    15.6870 ca         1 YMW       0.102600
     17 NAG         -1.8970     4.4040    15.7900 n          1 YMW      -0.228200
     18 CAH         -1.6100     3.6380    16.9900 ca         1 YMW      -0.024400
     19 CAI         -1.8500     4.1730    18.2730 ca         1 YMW      -0.057000
     20 CAJ         -1.5200     3.4030    19.4010 ca         1 YMW      -0.160000
     21 CAK         -0.9510     2.1320    19.2230 ca         1 YMW       0.342900
     22 NAL         -0.6920     1.6090    18.0030 nb         1 YMW      -0.659000
     23 CAM         -1.0070     2.3570    16.9160 ca         1 YMW       0.355900
     24 H1           0.4010     7.5670    10.8550 h1         1 YMW       0.066200
     25 H2          -1.0770     8.5430    10.8000 h1         1 YMW       0.066200
     26 H3          -0.7350     7.3270     8.6400 hc         1 YMW       0.054367
     27 H4          -0.7330     5.7700     9.4990 hc         1 YMW       0.054367
     28 H5          -2.2150     6.7540     9.4410 hc         1 YMW       0.054367
     29 H6          -3.2150     7.6670    12.2080 h4         1 YMW       0.162000
     30 H7          -4.9160     7.3170    13.7270 ha         1 YMW       0.117000
     31 H8          -6.7190     6.7920    15.3460 ha         1 YMW       0.133000
     32 H9          -4.1780     3.9700    17.3300 ha         1 YMW       0.141000
     33 H10         -2.2660     5.1710    18.3970 ha         1 YMW       0.132000
     34 H11         -1.6950     3.7830    20.4030 ha         1 YMW       0.128000
     35 H12         -0.6870     1.5160    20.0820 h4         1 YMW       0.022100
     36 H13         -0.7940     1.8990    15.9510 h4         1 YMW       0.031100
@<TRIPOS>BOND
     1     1     2 2   
     2     2     3 1   
     3     2    17 1   
     4     3     4 2   
     5     3     9 1   
     6     4     5 1   
     7     5     6 1   
     8     5     8 1   
     9     6     7 1   
    10     6    24 1   
    11     6    25 1   
    12     7    26 1   
    13     7    27 1   
    14     7    28 1   
    15     8     9 2   
    16     8    29 1   
    17     9    10 1   
    18    10    11 ar  
    19    10    16 ar  
    20    11    12 ar  
    21    11    30 1   
    22    12    13 ar  
    23    12    31 1   
    24    13    14 1   
    25    13    15 ar  
    26    15    16 ar  
    27    15    32 1   
    28    16    17 1   
    29    17    18 1   
    30    18    19 ar  
    31    18    23 ar  
    32    19    20 ar  
    33    19    33 1   
    34    20    21 ar  
    35    20    34 1   
    36    21    22 ar  
    37    21    35 1   
    38    22    23 ar  
    39    23    36 1   
@<TRIPOS>SUBSTRUCTURE
     1 YMW         1 TEMP              0 ****  ****    0 ROOT
