@<TRIPOS>MOLECULE
YMW
   36    39     1     0     0
SMALL
abcg2


@<TRIPOS>ATOM
      1 OAV          0.1470     4.4590    15.0730 o          1 YMW      -0.497000
      2 CAN         -0.9670     4.9180    14.9170 c          1 YMW       0.508500
      3 CAO         -1.3620     5.7860    13.8240 cc         1 YMW       0.184500
      4 NAP         -0.5590     6.1950    12.8530 nd         1 YMW      -0.449800
      5 NAQ         -1.3240     6.9550    12.0940 na         1 YMW       0.153800
      6 CAR         -0.7760     7.5470    10.8840 c3         1 YMW       0.083600
      7 CAS         -0.5410     6.5100     9.8020 c3         1 YMW      -0.112100
      8 CAT         -2.5940     7.0530    12.5310 cd         1 YMW      -0.164000
      9 CAU         -2.6600     6.2910    13.6810 cc         1 YMW      -0.117000
     10 CAE         -3.6830     5.9650    14.6340 ca         1 YMW      -0.036000
     11 CAD         -4.9950     6.4280    14.5550 ca         1 YMW      -0.066000
     12 CAC         -5.9410     6.0810    15.4990 ca         1 YMW      -0.129000
     13 CAB         -5.5540     5.2500    16.5410 ca         1 YMW       0.148000
     14 CLAA        -6.7180     4.7940    17.7370 cl         1 YMW      -0.196000
     15 CAW         -4.2640     4.7690    16.6550 ca         1 YMW      -0.147000
     16 CAF         -3.3120     5.1240    15.6980 ca         1 YMW       0.102600
     17 NAG         -1.9980     4.6420    15.8020 n          1 YMW      -0.228200
     18 CAH         -1.6610     3.7920    16.8940 ca         1 YMW      -0.024400
     19 CAI         -1.1980     4.3180    18.0880 ca         1 YMW      -0.057000
     20 CAJ         -0.8910     3.4380    19.1130 ca         1 YMW      -0.160000
     21 CAK         -1.0610     2.0790    18.8930 ca         1 YMW       0.342900
     22 NAL         -1.5050     1.5740    17.7470 nb         1 YMW      -0.659000
     23 CAM         -1.7980     2.4180    16.7690 ca         1 YMW       0.355900
     24 H1           0.1500     8.0520    11.1520 h1         1 YMW       0.066200
     25 H2          -1.4820     8.3050    10.5510 h1         1 YMW       0.066200
     26 H3          -0.1360     6.9960     8.9160 hc         1 YMW       0.054367
     27 H4           0.1700     5.7520    10.1270 hc         1 YMW       0.054367
     28 H5          -1.4710     6.0150     9.5210 hc         1 YMW       0.054367
     29 H6          -3.3310     7.6390    12.0060 h4         1 YMW       0.162000
     30 H7          -5.2770     7.0760    13.7350 ha         1 YMW       0.117000
     31 H8          -6.9550     6.4480    15.4250 ha         1 YMW       0.133000
     32 H9          -4.0100     4.1270    17.4850 ha         1 YMW       0.141000
     33 H10         -1.0860     5.3880    18.2120 ha         1 YMW       0.132000
     34 H11         -0.5260     3.7960    20.0660 ha         1 YMW       0.128000
     35 H12         -0.8290     1.3670    19.6770 h4         1 YMW       0.022100
     36 H13         -2.1630     1.9940    15.8380 h4         1 YMW       0.031100
@<TRIPOS>BOND
     1     1     2 2   
     2     2     3 1   
     3     2    17 1   
     4     3     4 2   
     5     3     9 1   
     6     4     5 1   
     7     5     6 1   
     8     5     8 1   
     9     6     7 1   
    10     6    24 1   
    11     6    25 1   
    12     7    26 1   
    13     7    27 1   
    14     7    28 1   
    15     8     9 2   
    16     8    29 1   
    17     9    10 1   
    18    10    11 ar  
    19    10    16 ar  
    20    11    12 ar  
    21    11    30 1   
    22    12    13 ar  
    23    12    31 1   
    24    13    14 1   
    25    13    15 ar  
    26    15    16 ar  
    27    15    32 1   
    28    16    17 1   
    29    17    18 1   
    30    18    19 ar  
    31    18    23 ar  
    32    19    20 ar  
    33    19    33 1   
    34    20    21 ar  
    35    20    34 1   
    36    21    22 ar  
    37    21    35 1   
    38    22    23 ar  
    39    23    36 1   
@<TRIPOS>SUBSTRUCTURE
     1 YMW         1 TEMP              0 ****  ****    0 ROOT
