@<TRIPOS>MOLECULE
YMX
   75    80     1     0     0
SMALL
No Charge or Current Charge


@<TRIPOS>ATOM
      1 C1           5.0970    -3.1790    -1.5990 ca         1 YMX      -0.133000
      2 C2           3.6990    -3.2300    -1.5950 ca         1 YMX      -0.013200
      3 N3           2.8530    -4.3150    -1.7220 na         1 YMX      -0.067400
      4 N4           1.5100    -3.8970    -1.6560 nc         1 YMX      -0.508100
      5 C5           1.5750    -2.5680    -1.4900 cd         1 YMX       0.434500
      6 N6           0.5320    -1.6870    -1.3660 ns         1 YMX      -0.398400
      7 C7          -0.8190    -1.9380    -1.3650 c          1 YMX       0.646700
      8 O8          -1.2770    -3.0680    -1.4820 o          1 YMX      -0.602100
      9 C9          -1.7050    -0.7160    -1.2370 ca         1 YMX      -0.301600
     10 C10         -1.1840     0.5770    -1.4780 ca         1 YMX       0.006000
     11 C11         -2.0000     1.7090    -1.3560 ca         1 YMX      -0.255000
     12 C12         -3.3490     1.5840    -0.9990 ca         1 YMX       0.400000
     13 N13         -4.1850     2.7120    -0.8740 nh         1 YMX      -0.801400
     14 C14         -3.9080     3.9740    -1.6330 c6         1 YMX       0.209800
     15 C15         -5.1760     4.8780    -1.7780 c6         1 YMX       0.152300
     16 N16         -5.8380     5.1650    -0.4680 n3         1 YMX      -0.710600
     17 C17         -7.0120     6.0540    -0.6050 c3         1 YMX       0.151100
     18 C18         -6.1640     3.8810     0.2250 c6         1 YMX       0.152300
     19 C19         -4.9160     2.9570     0.4110 c6         1 YMX       0.209800
     20 C20         -3.8710     0.3110    -0.7690 ca         1 YMX      -0.297000
     21 C21         -3.0660    -0.8260    -0.8790 ca         1 YMX       0.448000
     22 N22         -3.6400    -2.0610    -0.6170 nu         1 YMX      -0.968200
     23 C23         -4.4210    -2.3510     0.5890 c6         1 YMX       0.244500
     24 C24         -4.9460    -3.8020     0.5130 c6         1 YMX      -0.133900
     25 C25         -5.6590    -4.1790     1.8310 c6         1 YMX       0.157100
     26 O26         -4.7610    -3.9810     2.9440 os         1 YMX      -0.448000
     27 C27         -4.3220    -2.6160     3.1080 c6         1 YMX       0.157100
     28 C28         -3.5460    -2.1600     1.8520 c6         1 YMX      -0.133900
     29 C29          2.9420    -2.1130    -1.4490 ca         1 YMX      -0.263900
     30 C30          3.5110    -0.8400    -1.2940 ca         1 YMX      -0.024000
     31 C31          4.9220    -0.7450    -1.2940 ca         1 YMX      -0.127300
     32 C32          5.5880     0.6140    -1.1190 c3         1 YMX       0.017200
     33 C33          5.5020     1.0930     0.3240 ca         1 YMX      -0.019300
     34 C34          6.3730     0.5670     1.2970 ca         1 YMX      -0.168500
     35 C35          6.2880     1.0000     2.6300 ca         1 YMX       0.202000
     36 F36          7.1280     0.4890     3.5560 f          1 YMX      -0.173000
     37 C37          5.3360     1.9570     3.0070 ca         1 YMX      -0.200000
     38 C38          4.4670     2.4800     2.0410 ca         1 YMX       0.202000
     39 F39          3.5450     3.4010     2.3980 f          1 YMX      -0.173000
     40 C40          4.5450     2.0530     0.7060 ca         1 YMX      -0.168500
     41 C41          5.7100    -1.9160    -1.4450 ca         1 YMX      -0.059000
     42 H1           5.6940    -4.0810    -1.7150 ha         1 YMX       0.123000
     43 H10         -0.1500     0.7300    -1.7760 ha         1 YMX       0.091000
     44 H11         -1.5680     2.6880    -1.5380 ha         1 YMX       0.114000
     45 H14         -3.1240     4.5500    -1.1200 h1         1 YMX       0.048200
     46 H14A        -3.5370     3.7380    -2.6410 h1         1 YMX       0.048200
     47 H15         -4.8800     5.8160    -2.2680 h1         1 YMX       0.040700
     48 H15A        -5.8840     4.3740    -2.4530 h1         1 YMX       0.040700
     49 H17         -7.7900     5.5850    -1.2220 h1         1 YMX       0.033033
     50 H17A        -7.4430     6.2800     0.3800 h1         1 YMX       0.033033
     51 H17B        -6.7260     7.0040    -1.0750 h1         1 YMX       0.033033
     52 H18         -6.5970     4.0830     1.2160 h1         1 YMX       0.040700
     53 H18A        -6.9220     3.3270    -0.3480 h1         1 YMX       0.040700
     54 H19         -5.2530     2.0110     0.8580 h1         1 YMX       0.048200
     55 H19A        -4.2350     3.4290     1.1350 h1         1 YMX       0.048200
     56 H20         -4.9200     0.2070    -0.5190 ha         1 YMX       0.115000
     57 HN22        -3.0050    -2.8110    -0.9140 hn         1 YMX       0.533000
     58 H23         -5.2890    -1.6780     0.6570 h1         1 YMX       0.051700
     59 H24         -5.6420    -3.9090    -0.3300 hc         1 YMX       0.061200
     60 H24A        -4.1180    -4.5020     0.3360 hc         1 YMX       0.061200
     61 H25         -6.5580    -3.5610     1.9720 h1         1 YMX       0.044450
     62 H25A        -5.9690    -5.2330     1.8030 h1         1 YMX       0.044450
     63 H27         -5.1960    -1.9690     3.2750 h1         1 YMX       0.044450
     64 H27A        -3.6740    -2.5520     3.9940 h1         1 YMX       0.044450
     65 H28         -2.6180    -2.7420     1.7660 hc         1 YMX       0.061200
     66 H28A        -3.2550    -1.1070     1.9600 hc         1 YMX       0.061200
     67 H30          2.8920     0.0470    -1.1750 ha         1 YMX       0.108000
     68 H32          6.6380     0.5690    -1.4310 hc         1 YMX       0.057200
     69 H32A         5.1180     1.3440    -1.7900 hc         1 YMX       0.057200
     70 H34          7.1140    -0.1790     1.0230 ha         1 YMX       0.133500
     71 H37          5.2730     2.2890     4.0390 ha         1 YMX       0.150000
     72 H40          3.8590     2.4690    -0.0280 ha         1 YMX       0.133500
     73 H41          6.7960    -1.8480    -1.4410 ha         1 YMX       0.112000
     74 H6           0.7690    -0.7180    -1.2390 hn         1 YMX       0.322500
     75 H3           3.1210    -5.2900    -1.8470 hn         1 YMX       0.381000
@<TRIPOS>BOND
     1     1     2 ar  
     2     1    41 ar  
     3     1    42 1   
     4     2     3 1   
     5     2    29 ar  
     6     3     4 1   
     7     3    75 1   
     8     4     5 2   
     9     5     6 1   
    10     5    29 1   
    11     6     7 1   
    12     6    74 1   
    13     7     8 2   
    14     7     9 1   
    15     9    10 ar  
    16     9    21 ar  
    17    10    11 ar  
    18    10    43 1   
    19    11    12 ar  
    20    11    44 1   
    21    12    13 1   
    22    12    20 ar  
    23    13    14 1   
    24    13    19 1   
    25    14    15 1   
    26    14    45 1   
    27    14    46 1   
    28    15    16 1   
    29    15    47 1   
    30    15    48 1   
    31    16    17 1   
    32    16    18 1   
    33    17    49 1   
    34    17    50 1   
    35    17    51 1   
    36    18    19 1   
    37    18    52 1   
    38    18    53 1   
    39    19    54 1   
    40    19    55 1   
    41    20    21 ar  
    42    20    56 1   
    43    21    22 1   
    44    22    23 1   
    45    22    57 1   
    46    23    24 1   
    47    23    28 1   
    48    23    58 1   
    49    24    25 1   
    50    24    59 1   
    51    24    60 1   
    52    25    26 1   
    53    25    61 1   
    54    25    62 1   
    55    26    27 1   
    56    27    28 1   
    57    27    63 1   
    58    27    64 1   
    59    28    65 1   
    60    28    66 1   
    61    29    30 ar  
    62    30    31 ar  
    63    30    67 1   
    64    31    32 1   
    65    31    41 ar  
    66    32    33 1   
    67    32    68 1   
    68    32    69 1   
    69    33    34 ar  
    70    33    40 ar  
    71    34    35 ar  
    72    34    70 1   
    73    35    36 1   
    74    35    37 ar  
    75    37    38 ar  
    76    37    71 1   
    77    38    39 1   
    78    38    40 ar  
    79    40    72 1   
    80    41    73 1   
@<TRIPOS>SUBSTRUCTURE
     1 YMX         1 TEMP              0 ****  ****    0 ROOT
