@<TRIPOS>MOLECULE
YMX
   75    80     1     0     0
SMALL
abcg2


@<TRIPOS>ATOM
      1 C1           5.2410    -3.0410    -1.0800 ca         1 YMX      -0.133000
      2 C2           3.8520    -3.0650    -0.9110 ca         1 YMX      -0.013200
      3 N3           2.9800    -4.0650    -0.6650 na         1 YMX      -0.067400
      4 N4           1.7090    -3.6330    -0.5750 nc         1 YMX      -0.508100
      5 C5           1.7500    -2.3400    -0.7610 cd         1 YMX       0.434500
      6 N6           0.6650    -1.4810    -0.7500 ns         1 YMX      -0.398400
      7 C7          -0.6380    -1.7840    -0.4710 c          1 YMX       0.646700
      8 O8          -0.9560    -2.9430    -0.2130 o          1 YMX      -0.602100
      9 C9          -1.5990    -0.6700    -0.4920 ca         1 YMX      -0.301600
     10 C10         -1.2110     0.6450    -0.7740 ca         1 YMX       0.006000
     11 C11         -2.0670     1.7180    -0.7810 ca         1 YMX      -0.255000
     12 C12         -3.4340     1.5240    -0.4890 ca         1 YMX       0.400000
     13 N13         -4.3290     2.5710    -0.5000 nh         1 YMX      -0.801400
     14 C14         -3.8540     3.9130    -0.7840 c6         1 YMX       0.209800
     15 C15         -4.9920     4.8110    -1.2330 c6         1 YMX       0.152300
     16 N16         -6.0630     4.8350    -0.2630 n3         1 YMX      -0.710600
     17 C17         -7.1120     5.7500    -0.6530 c3         1 YMX       0.151100
     18 C18         -6.5640     3.4920    -0.0720 c6         1 YMX       0.152300
     19 C19         -5.4660     2.5660     0.4100 c6         1 YMX       0.209800
     20 C20         -3.8500     0.2220    -0.2080 ca         1 YMX      -0.297000
     21 C21         -2.9850    -0.8830    -0.2100 ca         1 YMX       0.448000
     22 N22         -3.4720    -2.1230     0.0280 nu         1 YMX      -0.968200
     23 C23         -4.8240    -2.4430     0.4110 c6         1 YMX       0.244500
     24 C24         -5.0950    -3.9200     0.1490 c6         1 YMX      -0.133900
     25 C25         -6.4980    -4.2860     0.6060 c6         1 YMX       0.157100
     26 O26         -6.7150    -3.9770     1.9650 os         1 YMX      -0.448000
     27 C27         -6.5330    -2.6030     2.2340 c6         1 YMX       0.157100
     28 C28         -5.1310    -2.1350     1.8790 c6         1 YMX      -0.133900
     29 C29          3.0870    -1.8930    -0.9860 ca         1 YMX      -0.263900
     30 C30          3.7010    -0.6600    -1.2370 ca         1 YMX      -0.024000
     31 C31          5.0680    -0.6190    -1.4030 ca         1 YMX      -0.127300
     32 C32          5.7810     0.6910    -1.6320 c3         1 YMX       0.017200
     33 C33          6.3370     1.2410    -0.3440 ca         1 YMX      -0.019300
     34 C34          7.6520     0.9760     0.0260 ca         1 YMX      -0.168500
     35 C35          8.1170     1.4550     1.2360 ca         1 YMX       0.202000
     36 F36          9.3820     1.1950     1.5890 f          1 YMX      -0.173000
     37 C37          7.3350     2.1960     2.1000 ca         1 YMX      -0.200000
     38 C38          6.0350     2.4430     1.6980 ca         1 YMX       0.202000
     39 F39          5.2490     3.1670     2.5070 f          1 YMX      -0.173000
     40 C40          5.5190     1.9840     0.5030 ca         1 YMX      -0.168500
     41 C41          5.8180    -1.8160    -1.3200 ca         1 YMX      -0.059000
     42 H1           5.8380    -3.9410    -1.0290 ha         1 YMX       0.123000
     43 H10         -0.1790     0.8840    -0.9930 ha         1 YMX       0.091000
     44 H11         -1.6570     2.6950    -0.9840 ha         1 YMX       0.114000
     45 H14         -3.3580     4.3520     0.0920 h1         1 YMX       0.048200
     46 H14A        -3.1290     3.8860    -1.5950 h1         1 YMX       0.048200
     47 H15         -4.5970     5.8210    -1.3640 h1         1 YMX       0.040700
     48 H15A        -5.3480     4.4710    -2.2220 h1         1 YMX       0.040700
     49 H17         -7.5860     5.4810    -1.6090 h1         1 YMX       0.033033
     50 H17A        -7.8910     5.7760     0.1110 h1         1 YMX       0.033033
     51 H17B        -6.7080     6.7580    -0.7540 h1         1 YMX       0.033033
     52 H18         -7.3570     3.5040     0.6800 h1         1 YMX       0.040700
     53 H18A        -7.0020     3.0830    -1.0000 h1         1 YMX       0.040700
     54 H19         -5.8920     1.5700     0.4970 h1         1 YMX       0.048200
     55 H19A        -5.1430     2.8700     1.4150 h1         1 YMX       0.048200
     56 H20         -4.8940     0.0400    -0.0130 ha         1 YMX       0.115000
     57 HN22        -2.7770    -2.8560     0.0770 hn         1 YMX       0.533000
     58 H23         -5.5190    -1.8720    -0.2170 h1         1 YMX       0.051700
     59 H24         -4.9930    -4.1430    -0.9160 hc         1 YMX       0.061200
     60 H24A        -4.3620    -4.5330     0.6840 hc         1 YMX       0.061200
     61 H25         -7.2360    -3.7690    -0.0260 h1         1 YMX       0.044450
     62 H25A        -6.6680    -5.3580     0.4910 h1         1 YMX       0.044450
     63 H27         -7.2730    -2.0040     1.6810 h1         1 YMX       0.044450
     64 H27A        -6.7290    -2.4580     3.2970 h1         1 YMX       0.044450
     65 H28         -4.3950    -2.6410     2.5120 hc         1 YMX       0.061200
     66 H28A        -5.0480    -1.0650     2.0840 hc         1 YMX       0.061200
     67 H30          3.1160     0.2510    -1.3060 ha         1 YMX       0.108000
     68 H32          6.5900     0.5530    -2.3520 hc         1 YMX       0.057200
     69 H32A         5.0910     1.4130    -2.0710 hc         1 YMX       0.057200
     70 H34          8.3090     0.4070    -0.6200 ha         1 YMX       0.133500
     71 H37          7.7200     2.5680     3.0390 ha         1 YMX       0.150000
     72 H40          4.4940     2.2060     0.2350 ha         1 YMX       0.133500
     73 H41          6.8910    -1.7660    -1.4570 ha         1 YMX       0.112000
     74 H6           0.9050    -0.5250    -0.9430 hn         1 YMX       0.322500
     75 H3           3.1750    -5.0450    -0.5530 hn         1 YMX       0.381000
@<TRIPOS>BOND
     1     1     2 ar  
     2     1    41 ar  
     3     1    42 1   
     4     2     3 1   
     5     2    29 ar  
     6     3     4 1   
     7     3    75 1   
     8     4     5 2   
     9     5     6 1   
    10     5    29 1   
    11     6     7 1   
    12     6    74 1   
    13     7     8 2   
    14     7     9 1   
    15     9    10 ar  
    16     9    21 ar  
    17    10    11 ar  
    18    10    43 1   
    19    11    12 ar  
    20    11    44 1   
    21    12    13 1   
    22    12    20 ar  
    23    13    14 1   
    24    13    19 1   
    25    14    15 1   
    26    14    45 1   
    27    14    46 1   
    28    15    16 1   
    29    15    47 1   
    30    15    48 1   
    31    16    17 1   
    32    16    18 1   
    33    17    49 1   
    34    17    50 1   
    35    17    51 1   
    36    18    19 1   
    37    18    52 1   
    38    18    53 1   
    39    19    54 1   
    40    19    55 1   
    41    20    21 ar  
    42    20    56 1   
    43    21    22 1   
    44    22    23 1   
    45    22    57 1   
    46    23    24 1   
    47    23    28 1   
    48    23    58 1   
    49    24    25 1   
    50    24    59 1   
    51    24    60 1   
    52    25    26 1   
    53    25    61 1   
    54    25    62 1   
    55    26    27 1   
    56    27    28 1   
    57    27    63 1   
    58    27    64 1   
    59    28    65 1   
    60    28    66 1   
    61    29    30 ar  
    62    30    31 ar  
    63    30    67 1   
    64    31    32 1   
    65    31    41 ar  
    66    32    33 1   
    67    32    68 1   
    68    32    69 1   
    69    33    34 ar  
    70    33    40 ar  
    71    34    35 ar  
    72    34    70 1   
    73    35    36 1   
    74    35    37 ar  
    75    37    38 ar  
    76    37    71 1   
    77    38    39 1   
    78    38    40 ar  
    79    40    72 1   
    80    41    73 1   
@<TRIPOS>SUBSTRUCTURE
     1 YMX         1 TEMP              0 ****  ****    0 ROOT
