@<TRIPOS>MOLECULE
YMZ
   42    44     1     0     0
SMALL
No Charge or Current Charge


@<TRIPOS>ATOM
      1 FAE          4.8110    -2.4320     0.9450 f          1 YMZ      -0.108000
      2 CAZ          3.9440    -1.5140     0.4580 c3         1 YMZ       0.370300
      3 FAF          4.4270    -0.3070     0.8340 f          1 YMZ      -0.108000
      4 FAG          4.0430    -1.5840    -0.8900 f          1 YMZ      -0.108000
      5 CAT          2.4990    -1.7340     0.9440 ca         1 YMZ      -0.166300
      6 CAI          2.2110    -2.8080     1.8170 ca         1 YMZ      -0.042000
      7 CAH          0.9090    -3.0230     2.2760 ca         1 YMZ      -0.113000
      8 CAJ         -0.1300    -2.1790     1.8710 ca         1 YMZ      -0.061000
      9 CAU          0.1200    -1.1010     0.9910 ca         1 YMZ      -0.040000
     10 CAV          1.4500    -0.8680     0.5280 ca         1 YMZ       0.301000
     11 NAP          1.7320     0.1670    -0.2980 nb         1 YMZ      -0.618000
     12 CAR          0.7480     1.0070    -0.6950 ca         1 YMZ       0.280300
     13 CAY          1.1160     2.1770    -1.6310 c3         1 YMZ       0.262700
     14 FAC          0.4460     2.1040    -2.8050 f          1 YMZ      -0.103000
     15 FAD          0.8030     3.3730    -1.0770 f          1 YMZ      -0.103000
     16 FAB          2.4350     2.2270    -1.9400 f          1 YMZ      -0.103000
     17 CAK         -0.5800     0.8370    -0.2800 ca         1 YMZ      -0.131000
     18 CAS         -0.9300    -0.2380     0.5630 ca         1 YMZ      -0.024300
     19 CAW         -2.3960    -0.4400     1.0100 c3         1 YMZ       0.214600
     20 OAA         -2.5330     0.0560     2.3540 oh         1 YMZ      -0.642000
     21 CAX         -3.5100     0.1560     0.0620 c6         1 YMZ       0.126500
     22 CAO         -4.9490    -0.1790     0.5540 c6         1 YMZ      -0.108400
     23 CAM         -6.0210     0.4060    -0.3980 c6         1 YMZ      -0.076400
     24 CAL         -5.7630    -0.0490    -1.8540 c6         1 YMZ      -0.115400
     25 CAN         -4.3130     0.2730    -2.2840 c6         1 YMZ       0.148800
     26 NAQ         -3.3420    -0.3290    -1.3400 n7         1 YMZ      -0.840400
     27 H1           2.9940    -3.4850     2.1520 ha         1 YMZ       0.138000
     28 H2           0.7030    -3.8490     2.9540 ha         1 YMZ       0.125000
     29 H3          -1.1220    -2.3780     2.2650 ha         1 YMZ       0.117000
     30 H4          -1.3260     1.5420    -0.6310 ha         1 YMZ       0.133000
     31 H5          -2.5930    -1.5200     1.0040 h1         1 YMZ       0.078700
     32 H6          -2.2170     0.9850     2.3470 ho         1 YMZ       0.446000
     33 H7          -3.4030     1.2520     0.0700 h1         1 YMZ       0.063700
     34 H8          -5.0750    -1.2680     0.6270 hc         1 YMZ       0.050700
     35 H9          -5.1090     0.2200     1.5650 hc         1 YMZ       0.050700
     36 H10         -7.0240     0.0940    -0.0770 hc         1 YMZ       0.045700
     37 H11         -6.0020     1.5040    -0.3450 hc         1 YMZ       0.045700
     38 H12         -5.9430    -1.1290    -1.9440 hc         1 YMZ       0.046700
     39 H13         -6.4710     0.4440    -2.5330 hc         1 YMZ       0.046700
     40 H14         -4.1340    -0.1140    -3.2990 h1         1 YMZ       0.057700
     41 H15         -4.1710     1.3640    -2.3170 h1         1 YMZ       0.057700
     42 H16         -3.4720    -1.3470    -1.3540 hn         1 YMZ       0.400000
@<TRIPOS>BOND
     1     1     2 1   
     2     2     3 1   
     3     2     4 1   
     4     2     5 1   
     5     5     6 ar  
     6     5    10 ar  
     7     6     7 ar  
     8     6    27 1   
     9     7     8 ar  
    10     7    28 1   
    11     8     9 ar  
    12     8    29 1   
    13     9    10 ar  
    14     9    18 ar  
    15    10    11 ar  
    16    11    12 ar  
    17    12    13 1   
    18    12    17 ar  
    19    13    14 1   
    20    13    15 1   
    21    13    16 1   
    22    17    18 ar  
    23    17    30 1   
    24    18    19 1   
    25    19    20 1   
    26    19    21 1   
    27    19    31 1   
    28    20    32 1   
    29    21    22 1   
    30    21    26 1   
    31    21    33 1   
    32    22    23 1   
    33    22    34 1   
    34    22    35 1   
    35    23    24 1   
    36    23    36 1   
    37    23    37 1   
    38    24    25 1   
    39    24    38 1   
    40    24    39 1   
    41    25    26 1   
    42    25    40 1   
    43    25    41 1   
    44    26    42 1   
@<TRIPOS>SUBSTRUCTURE
     1 YMZ         1 TEMP              0 ****  ****    0 ROOT
