@<TRIPOS>MOLECULE
YMZ
   42    44     1     0     0
SMALL
bcc


@<TRIPOS>ATOM
      1 FAE          4.0560    -2.9250    -0.0890 f          1 YMZ      -0.229300
      2 CAZ          3.4200    -1.7460    -0.1400 c3         1 YMZ       0.734200
      3 FAF          4.1500    -0.8920     0.5860 f          1 YMZ      -0.229300
      4 FAG          3.4770    -1.3400    -1.4130 f          1 YMZ      -0.229300
      5 CAT          2.0100    -1.8570     0.3610 ca         1 YMZ      -0.231600
      6 CAI          1.5240    -3.0530     0.8130 ca         1 YMZ      -0.060000
      7 CAH          0.2040    -3.1470     1.2930 ca         1 YMZ      -0.131000
      8 CAJ         -0.6130    -2.0540     1.3040 ca         1 YMZ      -0.079000
      9 CAU         -0.1550    -0.8010     0.8330 ca         1 YMZ      -0.105300
     10 CAV          1.1810    -0.7030     0.3650 ca         1 YMZ       0.431600
     11 NAP          1.7060     0.4540    -0.0830 nb         1 YMZ      -0.618000
     12 CAR          0.9500     1.5080    -0.0810 ca         1 YMZ       0.345600
     13 CAY          1.5680     2.7910    -0.5780 c3         1 YMZ       0.626600
     14 FAC          0.8820     3.2800    -1.6200 f          1 YMZ      -0.224300
     15 FAD          1.5440     3.7320     0.3760 f          1 YMZ      -0.224300
     16 FAB          2.8290     2.6360    -0.9600 f          1 YMZ      -0.224300
     17 CAK         -0.3840     1.5300     0.3550 ca         1 YMZ      -0.214300
     18 CAS         -0.9570     0.3720     0.8110 ca         1 YMZ      -0.024300
     19 CAW         -2.4040     0.3930     1.2660 c3         1 YMZ       0.191400
     20 OAA         -2.6940     1.5560     2.0000 oh         1 YMZ      -0.579800
     21 CAX         -3.3480     0.2230     0.0650 c6         1 YMZ       0.126500
     22 CAO         -4.8230     0.2570     0.4720 c6         1 YMZ      -0.108400
     23 CAM         -5.7130     0.0740    -0.7550 c6         1 YMZ      -0.076400
     24 CAL         -5.3200    -1.1650    -1.5530 c6         1 YMZ      -0.115400
     25 CAN         -3.8250    -1.1510    -1.8580 c6         1 YMZ       0.148800
     26 NAQ         -2.9950    -0.9790    -0.6720 n7         1 YMZ      -0.785200
     27 H1           2.1390    -3.9410     0.8150 ha         1 YMZ       0.156000
     28 H2          -0.1600    -4.0980     1.6540 ha         1 YMZ       0.143000
     29 H3          -1.6170    -2.1590     1.6880 ha         1 YMZ       0.135000
     30 H4          -0.9440     2.4550     0.3280 ha         1 YMZ       0.151000
     31 H5          -2.5760    -0.4300     1.9650 h1         1 YMZ       0.078700
     32 H6          -2.9090     2.2760     1.3970 ho         1 YMZ       0.407000
     33 H7          -3.1630     1.0690    -0.6160 h1         1 YMZ       0.063700
     34 H8          -5.0100    -0.5450     1.1960 hc         1 YMZ       0.050700
     35 H9          -5.0720     1.1970     0.9680 hc         1 YMZ       0.050700
     36 H10         -6.7610     0.0200    -0.4520 hc         1 YMZ       0.045700
     37 H11         -5.6220     0.9580    -1.3960 hc         1 YMZ       0.045700
     38 H12         -5.5650    -2.0680    -0.9830 hc         1 YMZ       0.046700
     39 H13         -5.8920    -1.2180    -2.4830 hc         1 YMZ       0.046700
     40 H14         -3.5230    -2.0750    -2.3560 h1         1 YMZ       0.057700
     41 H15         -3.6000    -0.3320    -2.5490 h1         1 YMZ       0.057700
     42 H16         -3.1340    -1.7880    -0.0740 hn         1 YMZ       0.344800
@<TRIPOS>BOND
     1     1     2 1   
     2     2     3 1   
     3     2     4 1   
     4     2     5 1   
     5     5     6 ar  
     6     5    10 ar  
     7     6     7 ar  
     8     6    27 1   
     9     7     8 ar  
    10     7    28 1   
    11     8     9 ar  
    12     8    29 1   
    13     9    10 ar  
    14     9    18 ar  
    15    10    11 ar  
    16    11    12 ar  
    17    12    13 1   
    18    12    17 ar  
    19    13    14 1   
    20    13    15 1   
    21    13    16 1   
    22    17    18 ar  
    23    17    30 1   
    24    18    19 1   
    25    19    20 1   
    26    19    21 1   
    27    19    31 1   
    28    20    32 1   
    29    21    22 1   
    30    21    26 1   
    31    21    33 1   
    32    22    23 1   
    33    22    34 1   
    34    22    35 1   
    35    23    24 1   
    36    23    36 1   
    37    23    37 1   
    38    24    25 1   
    39    24    38 1   
    40    24    39 1   
    41    25    26 1   
    42    25    40 1   
    43    25    41 1   
    44    26    42 1   
@<TRIPOS>SUBSTRUCTURE
     1 YMZ         1 TEMP              0 ****  ****    0 ROOT
