@<TRIPOS>MOLECULE
YN0
   96   101     1     0     0
SMALL
No Charge or Current Charge


@<TRIPOS>ATOM
      1 C13         13.4280    -3.6700   -12.8870 ca         1 YN0      -0.066300
      2 C15         13.4100    -5.0310   -15.0170 c3         1 YN0      -0.083100
      3 C17         11.2280    -4.6670   -13.8270 c3         1 YN0      -0.083100
      4 C20         14.9880    -2.9720   -10.6210 ca         1 YN0      -0.086000
      5 C21         16.7090    -0.6570   -12.5510 c          1 YN0       0.581000
      6 C22         18.0390     0.0450   -12.8670 c6         1 YN0      -0.159400
      7 C24         19.2880    -1.9650   -12.0840 c6         1 YN0      -0.089400
      8 C26         17.9860    -5.4140    -9.3220 ca         1 YN0      -0.077200
      9 C28         17.8550    -6.0620   -11.7440 c6         1 YN0       0.087300
     10 C02         18.9000    -4.6410    -4.2190 cc         1 YN0       0.199300
     11 C03         18.2870    -5.5500    -5.0440 cd         1 YN0      -0.175000
     12 C04         18.1810    -5.5000    -6.5250 ca         1 YN0      -0.024000
     13 C05         18.2580    -4.2680    -7.2220 ca         1 YN0      -0.043000
     14 C06         18.1530    -4.2590    -8.6190 ca         1 YN0       0.066400
     15 C08         18.0300    -3.6510   -10.7010 cc         1 YN0       0.395800
     16 C09         17.9840    -2.8020   -11.9700 c6         1 YN0       0.130400
     17 C11         15.4830    -2.7210   -11.9120 ca         1 YN0      -0.054000
     18 C12         14.6800    -3.0250   -13.0280 ca         1 YN0      -0.113000
     19 C14         12.6040    -4.0230   -14.1550 c3         1 YN0       0.002300
     20 C16         12.3400    -2.7330   -14.9790 c3         1 YN0      -0.083100
     21 C18         12.9830    -3.9700   -11.5760 ca         1 YN0      -0.106000
     22 C19         13.7520    -3.6120   -10.4570 ca         1 YN0      -0.111000
     23 C23         19.1880    -0.9210   -13.2040 c6         1 YN0      -0.073400
     24 C29         19.1460    -6.0670   -12.6200 c6         1 YN0      -0.087900
     25 C30         18.9120    -6.6760   -14.0330 c6         1 YN0      -0.092900
     26 C31         17.8120    -7.7670   -14.0090 c6         1 YN0       0.123700
     27 C35         18.7420   -10.7960   -17.8090 c3         1 YN0       0.225000
     28 C36         18.5980   -12.1620   -17.0900 c3         1 YN0      -0.109100
     29 C37         20.2180   -10.4030   -18.0750 c3         1 YN0      -0.109100
     30 C38         17.9550   -10.8150   -19.1380 c3         1 YN0      -0.109100
     31 C40         16.4450    -7.1390   -13.6020 c6         1 YN0      -0.092900
     32 C41         16.5720    -5.9480   -12.6060 c6         1 YN0      -0.087900
     33 C42         17.9060    -6.6610    -8.6850 ca         1 YN0      -0.113000
     34 C43         18.0060    -6.6920    -7.2790 ca         1 YN0      -0.083000
     35 C44         17.6400    -6.4480    -4.1490 cd         1 YN0       0.290300
     36 C45         16.7060    -7.5830    -4.4770 c3         1 YN0      -0.133400
     37 N07         18.1870    -3.1510    -9.4530 nd         1 YN0      -0.567100
     38 N10         16.7150    -2.0060   -12.1010 n          1 YN0      -0.245400
     39 N27         17.9210    -5.0580   -10.6430 na         1 YN0      -0.165600
     40 N32         17.7020    -8.4280   -15.3110 ns         1 YN0      -0.500900
     41 N46         17.8760    -6.1750    -2.8790 nc         1 YN0      -0.368300
     42 O34         18.0970    -9.7630   -17.0280 os         1 YN0      -0.481100
     43 O39         19.4230    -9.9250   -15.1300 o          1 YN0      -0.548000
     44 O47         18.7070    -5.0100    -2.9110 os         1 YN0      -0.072700
     45 H1          13.6060    -5.9490   -14.4500 hc         1 YN0       0.035256
     46 H2          12.8560    -5.3040   -15.9230 hc         1 YN0       0.035256
     47 H3          14.3750    -4.6140   -15.3300 hc         1 YN0       0.035256
     48 H4          11.3510    -5.6120   -13.2840 hc         1 YN0       0.035256
     49 H5          10.6100    -3.9930   -13.2220 hc         1 YN0       0.035256
     50 H6          10.6710    -4.8890   -14.7460 hc         1 YN0       0.035256
     51 H7          15.5540    -2.6730    -9.7440 ha         1 YN0       0.139000
     52 H8          18.3140     0.5860   -11.9520 hc         1 YN0       0.076700
     53 H9          17.8810     0.8090   -13.6400 hc         1 YN0       0.076700
     54 H10         20.1430    -2.6310   -12.2650 hc         1 YN0       0.064700
     55 H11         19.4960    -1.4510   -11.1340 hc         1 YN0       0.064700
     56 H12         17.8000    -7.0560   -11.2830 h1         1 YN0       0.067700
     57 H13         20.4560    -3.2700    -3.6440 hc         1 YN0       0.064700
     58 H14         20.3860    -3.5970    -5.3810 hc         1 YN0       0.064700
     59 H15         19.1700    -2.5420    -4.6190 hc         1 YN0       0.064700
     60 H16         18.3560    -3.3230    -6.7000 ha         1 YN0       0.131000
     61 H17         17.9960    -3.4640   -12.8420 h1         1 YN0       0.054700
     62 H18         15.0560    -2.7760   -14.0160 ha         1 YN0       0.112000
     63 H19         11.8180    -1.9860   -14.3690 hc         1 YN0       0.035256
     64 H20         13.2710    -2.2830   -15.3420 hc         1 YN0       0.035256
     65 H21         11.7180    -2.9480   -15.8560 hc         1 YN0       0.035256
     66 H22         12.0340    -4.4650   -11.3960 ha         1 YN0       0.113000
     67 H23         13.3830    -3.8240    -9.4560 ha         1 YN0       0.116000
     68 H24         20.1340    -0.3690   -13.2970 hc         1 YN0       0.050200
     69 H25         19.0050    -1.4120   -14.1700 hc         1 YN0       0.050200
     70 H26         19.9190    -6.6450   -12.0940 hc         1 YN0       0.058700
     71 H27         19.5620    -5.0590   -12.7340 hc         1 YN0       0.058700
     72 H28         19.8570    -7.0910   -14.4120 hc         1 YN0       0.053200
     73 H29         18.6230    -5.8820   -14.7360 hc         1 YN0       0.053200
     74 H30         18.0920    -8.5250   -13.2600 h1         1 YN0       0.078700
     75 H31         19.2470   -12.2330   -16.2110 hc         1 YN0       0.049811
     76 H32         17.5620   -12.3260   -16.7700 hc         1 YN0       0.049811
     77 H33         18.8770   -12.9800   -17.7650 hc         1 YN0       0.049811
     78 H34         20.8380   -10.5050   -17.1780 hc         1 YN0       0.049811
     79 H35         20.6530   -11.0510   -18.8440 hc         1 YN0       0.049811
     80 H36         20.2880    -9.3670   -18.4280 hc         1 YN0       0.049811
     81 H37         18.3610   -11.5720   -19.8210 hc         1 YN0       0.049811
     82 H38         16.8980   -11.0490   -18.9620 hc         1 YN0       0.049811
     83 H39         18.0110    -9.8410   -19.6390 hc         1 YN0       0.049811
     84 H40         15.9130    -6.7860   -14.4960 hc         1 YN0       0.053200
     85 H41         15.8110    -7.9230   -13.1650 hc         1 YN0       0.053200
     86 H42         16.5830    -5.0180   -13.1840 hc         1 YN0       0.058700
     87 H43         15.6800    -5.9020   -11.9650 hc         1 YN0       0.058700
     88 H44         17.7770    -7.5870    -9.2380 ha         1 YN0       0.119000
     89 H45         17.9830    -7.6580    -6.7870 ha         1 YN0       0.116000
     90 H46         16.0470    -7.8160    -3.6320 hc         1 YN0       0.056367
     91 H47         16.0610    -7.3320    -5.3270 hc         1 YN0       0.056367
     92 H48         17.2640    -8.4930    -4.7200 hc         1 YN0       0.056367
     93 H49         16.9840    -8.1250   -15.9550 hn         1 YN0       0.319500
     94 O25         15.6600    -0.0490   -12.7280 o          1 YN0      -0.542000
     95 C33         18.5070    -9.4310   -15.7660 c          1 YN0       0.648100
     96 C01         19.7740    -3.4460    -4.4840 c3         1 YN0      -0.139400
@<TRIPOS>BOND
     1     1    18 ar  
     2     1    19 1   
     3     1    21 ar  
     4     2    19 1   
     5     2    45 1   
     6     2    46 1   
     7     2    47 1   
     8     3    19 1   
     9     3    48 1   
    10     3    49 1   
    11     3    50 1   
    12     4    17 ar  
    13     4    22 ar  
    14     4    51 1   
    15     5     6 1   
    16     5    38 1   
    17     5    94 2   
    18     6    23 1   
    19     6    52 1   
    20     6    53 1   
    21     7    16 1   
    22     7    23 1   
    23     7    54 1   
    24     7    55 1   
    25     8    14 ar  
    26     8    33 ar  
    27     8    39 1   
    28     9    24 1   
    29     9    32 1   
    30     9    39 1   
    31     9    56 1   
    32    10    11 2   
    33    10    44 1   
    34    10    96 1   
    35    11    12 1   
    36    11    35 1   
    37    12    13 ar  
    38    12    34 ar  
    39    13    14 ar  
    40    13    60 1   
    41    14    37 1   
    42    15    16 1   
    43    15    37 2   
    44    15    39 1   
    45    16    38 1   
    46    16    61 1   
    47    17    18 ar  
    48    17    38 1   
    49    18    62 1   
    50    19    20 1   
    51    20    63 1   
    52    20    64 1   
    53    20    65 1   
    54    21    22 ar  
    55    21    66 1   
    56    22    67 1   
    57    23    68 1   
    58    23    69 1   
    59    24    25 1   
    60    24    70 1   
    61    24    71 1   
    62    25    26 1   
    63    25    72 1   
    64    25    73 1   
    65    26    31 1   
    66    26    40 1   
    67    26    74 1   
    68    27    28 1   
    69    27    29 1   
    70    27    30 1   
    71    27    42 1   
    72    28    75 1   
    73    28    76 1   
    74    28    77 1   
    75    29    78 1   
    76    29    79 1   
    77    29    80 1   
    78    30    81 1   
    79    30    82 1   
    80    30    83 1   
    81    31    32 1   
    82    31    84 1   
    83    31    85 1   
    84    32    86 1   
    85    32    87 1   
    86    33    34 ar  
    87    33    88 1   
    88    34    89 1   
    89    35    36 1   
    90    35    41 2   
    91    36    90 1   
    92    36    91 1   
    93    36    92 1   
    94    40    93 1   
    95    40    95 1   
    96    41    44 1   
    97    42    95 1   
    98    43    95 2   
    99    57    96 1   
   100    58    96 1   
   101    59    96 1   
@<TRIPOS>SUBSTRUCTURE
     1 YN0         1 TEMP              0 ****  ****    0 ROOT
