@<TRIPOS>MOLECULE
YN0
   96   101     1     0     0
SMALL
abcg2


@<TRIPOS>ATOM
      1 C13         13.5280    -3.7010   -12.9800 ca         1 YN0      -0.066300
      2 C15         13.7460    -4.9600   -15.1270 c3         1 YN0      -0.083100
      3 C17         11.5090    -4.7770   -14.0730 c3         1 YN0      -0.083100
      4 C20         14.8570    -2.9850   -10.6000 ca         1 YN0      -0.086000
      5 C21         16.7060    -0.7070   -12.1090 c          1 YN0       0.581000
      6 C22         18.0150    -0.0580   -12.4790 c6         1 YN0      -0.159400
      7 C24         19.1670    -2.2030   -12.1880 c6         1 YN0      -0.089400
      8 C26         18.0010    -5.4590    -9.3390 ca         1 YN0      -0.077200
      9 C28         17.8260    -6.1460   -11.7360 c6         1 YN0       0.087300
     10 C02         19.1180    -4.6420    -4.3330 cc         1 YN0       0.199300
     11 C03         18.2830    -5.3780    -5.1160 cd         1 YN0      -0.175000
     12 C04         18.1800    -5.3840    -6.5780 ca         1 YN0      -0.024000
     13 C05         18.1390    -4.1860    -7.2790 ca         1 YN0      -0.043000
     14 C06         18.0560    -4.2300    -8.6690 ca         1 YN0       0.066400
     15 C08         17.9140    -3.7800   -10.7450 cc         1 YN0       0.395800
     16 C09         17.8480    -2.9560   -12.0080 c6         1 YN0       0.130400
     17 C11         15.4200    -2.6950   -11.8360 ca         1 YN0      -0.054000
     18 C12         14.7600    -3.0470   -13.0030 ca         1 YN0      -0.113000
     19 C14         12.8350    -4.0500   -14.2940 c3         1 YN0       0.002300
     20 C16         12.5540    -2.7610   -15.0780 c3         1 YN0      -0.083100
     21 C18         12.9840    -3.9980   -11.7330 ca         1 YN0      -0.106000
     22 C19         13.6390    -3.6430   -10.5590 ca         1 YN0      -0.111000
     23 C23         18.9930    -1.0240   -13.1230 c6         1 YN0      -0.073400
     24 C29         19.0160    -6.0920   -12.7090 c6         1 YN0      -0.087900
     25 C30         18.6450    -6.6620   -14.0800 c6         1 YN0      -0.092900
     26 C31         17.7080    -7.8590   -13.9250 c6         1 YN0       0.123700
     27 C35         18.7180   -10.6730   -17.7740 c3         1 YN0       0.225000
     28 C36         18.8440   -12.0620   -17.1620 c3         1 YN0      -0.109100
     29 C37         20.0810   -10.0690   -18.0950 c3         1 YN0      -0.109100
     30 C38         17.8790   -10.7480   -19.0450 c3         1 YN0      -0.109100
     31 C40         16.3670    -7.4200   -13.3090 c6         1 YN0      -0.092900
     32 C41         16.4940    -6.1380   -12.4800 c6         1 YN0      -0.087900
     33 C42         18.0370    -6.6690    -8.6520 ca         1 YN0      -0.113000
     34 C43         18.1290    -6.6080    -7.2760 ca         1 YN0      -0.083000
     35 C44         17.5080    -6.1150    -4.1710 cd         1 YN0       0.290300
     36 C45         16.4140    -7.0860    -4.4380 c3         1 YN0      -0.133400
     37 N07         18.0040    -3.2080    -9.5750 nd         1 YN0      -0.567100
     38 N10         16.6930    -2.0580   -11.9360 n          1 YN0      -0.245400
     39 N27         17.9130    -5.1460   -10.6760 na         1 YN0      -0.165600
     40 N32         17.4620    -8.5470   -15.1730 ns         1 YN0      -0.500900
     41 N46         17.8600    -5.8240    -2.9530 nc         1 YN0      -0.368300
     42 O34         17.9430    -9.7900   -16.9220 os         1 YN0      -0.481100
     43 O39         19.3330    -9.8300   -15.1290 o          1 YN0      -0.548000
     44 O47         18.8660    -4.9080    -3.0500 os         1 YN0      -0.072700
     45 H1          13.9560    -5.8930   -14.6000 hc         1 YN0       0.035256
     46 H2          13.2640    -5.2130   -16.0740 hc         1 YN0       0.035256
     47 H3          14.7010    -4.4870   -15.3620 hc         1 YN0       0.035256
     48 H4          11.6420    -5.7210   -13.5410 hc         1 YN0       0.035256
     49 H5          10.7960    -4.1680   -13.5140 hc         1 YN0       0.035256
     50 H6          11.0530    -5.0070   -15.0370 hc         1 YN0       0.035256
     51 H7          15.3650    -2.6990    -9.6890 ha         1 YN0       0.139000
     52 H8          18.4540     0.3650   -11.5700 hc         1 YN0       0.076700
     53 H9          17.7810     0.7840   -13.1300 hc         1 YN0       0.076700
     54 H10         19.9130    -2.9060   -12.5590 hc         1 YN0       0.064700
     55 H11         19.5200    -1.8430   -11.2200 hc         1 YN0       0.064700
     56 H12         17.8750    -7.1000   -11.2080 h1         1 YN0       0.067700
     57 H13         21.0700    -3.8460    -4.0170 hc         1 YN0       0.064700
     58 H14         20.4860    -3.7540    -5.6830 hc         1 YN0       0.064700
     59 H15         19.8620    -2.6440    -4.4670 hc         1 YN0       0.064700
     60 H16         18.1530    -3.2350    -6.7610 ha         1 YN0       0.131000
     61 H17         17.7020    -3.6060   -12.8740 h1         1 YN0       0.054700
     62 H18         15.2310    -2.8010   -13.9480 ha         1 YN0       0.112000
     63 H19         11.9020    -2.0910   -14.5150 hc         1 YN0       0.035256
     64 H20         13.4690    -2.2170   -15.3160 hc         1 YN0       0.035256
     65 H21         12.0580    -2.9960   -16.0220 hc         1 YN0       0.035256
     66 H22         12.0350    -4.5100   -11.6570 ha         1 YN0       0.113000
     67 H23         13.1880    -3.8780    -9.6030 ha         1 YN0       0.116000
     68 H24         19.9510    -0.5330   -13.2950 hc         1 YN0       0.050200
     69 H25         18.6240    -1.3540   -14.0970 hc         1 YN0       0.050200
     70 H26         19.8470    -6.6550   -12.2810 hc         1 YN0       0.058700
     71 H27         19.3750    -5.0700   -12.8320 hc         1 YN0       0.058700
     72 H28         19.5510    -6.9610   -14.6090 hc         1 YN0       0.053200
     73 H29         18.1590    -5.8990   -14.6950 hc         1 YN0       0.053200
     74 H30         18.1860    -8.5730   -13.2510 h1         1 YN0       0.078700
     75 H31         19.4780   -12.0730   -16.2780 hc         1 YN0       0.049811
     76 H32         17.8640   -12.4620   -16.8940 hc         1 YN0       0.049811
     77 H33         19.2850   -12.7370   -17.8970 hc         1 YN0       0.049811
     78 H34         20.7360   -10.0370   -17.2280 hc         1 YN0       0.049811
     79 H35         20.5680   -10.6760   -18.8580 hc         1 YN0       0.049811
     80 H36         19.9770    -9.0580   -18.4930 hc         1 YN0       0.049811
     81 H37         18.3670   -11.3990   -19.7700 hc         1 YN0       0.049811
     82 H38         16.8870   -11.1560   -18.8440 hc         1 YN0       0.049811
     83 H39         17.7620    -9.7650   -19.5030 hc         1 YN0       0.049811
     84 H40         15.6330    -7.2450   -14.0980 hc         1 YN0       0.053200
     85 H41         15.9700    -8.2300   -12.6940 hc         1 YN0       0.053200
     86 H42         16.4270    -5.2690   -13.1370 hc         1 YN0       0.058700
     87 H43         15.6650    -6.0580   -11.7760 hc         1 YN0       0.058700
     88 H44         18.0000    -7.6270    -9.1550 ha         1 YN0       0.119000
     89 H45         18.1790    -7.5350    -6.7180 ha         1 YN0       0.116000
     90 H46         15.8590    -7.3040    -3.5270 hc         1 YN0       0.056367
     91 H47         15.7220    -6.6910    -5.1810 hc         1 YN0       0.056367
     92 H48         16.8080    -8.0250    -4.8260 hc         1 YN0       0.056367
     93 H49         16.7400    -8.1820   -15.7740 hn         1 YN0       0.319500
     94 O25         15.6840    -0.0520   -11.9880 o          1 YN0      -0.542000
     95 C33         18.3410    -9.4250   -15.7020 c          1 YN0       0.648100
     96 C01         20.1920    -3.6700    -4.6390 c3         1 YN0      -0.139400
@<TRIPOS>BOND
     1     1    18 ar  
     2     1    19 1   
     3     1    21 ar  
     4     2    19 1   
     5     2    45 1   
     6     2    46 1   
     7     2    47 1   
     8     3    19 1   
     9     3    48 1   
    10     3    49 1   
    11     3    50 1   
    12     4    17 ar  
    13     4    22 ar  
    14     4    51 1   
    15     5     6 1   
    16     5    38 1   
    17     5    94 2   
    18     6    23 1   
    19     6    52 1   
    20     6    53 1   
    21     7    16 1   
    22     7    23 1   
    23     7    54 1   
    24     7    55 1   
    25     8    14 ar  
    26     8    33 ar  
    27     8    39 1   
    28     9    24 1   
    29     9    32 1   
    30     9    39 1   
    31     9    56 1   
    32    10    11 2   
    33    10    44 1   
    34    10    96 1   
    35    11    12 1   
    36    11    35 1   
    37    12    13 ar  
    38    12    34 ar  
    39    13    14 ar  
    40    13    60 1   
    41    14    37 1   
    42    15    16 1   
    43    15    37 2   
    44    15    39 1   
    45    16    38 1   
    46    16    61 1   
    47    17    18 ar  
    48    17    38 1   
    49    18    62 1   
    50    19    20 1   
    51    20    63 1   
    52    20    64 1   
    53    20    65 1   
    54    21    22 ar  
    55    21    66 1   
    56    22    67 1   
    57    23    68 1   
    58    23    69 1   
    59    24    25 1   
    60    24    70 1   
    61    24    71 1   
    62    25    26 1   
    63    25    72 1   
    64    25    73 1   
    65    26    31 1   
    66    26    40 1   
    67    26    74 1   
    68    27    28 1   
    69    27    29 1   
    70    27    30 1   
    71    27    42 1   
    72    28    75 1   
    73    28    76 1   
    74    28    77 1   
    75    29    78 1   
    76    29    79 1   
    77    29    80 1   
    78    30    81 1   
    79    30    82 1   
    80    30    83 1   
    81    31    32 1   
    82    31    84 1   
    83    31    85 1   
    84    32    86 1   
    85    32    87 1   
    86    33    34 ar  
    87    33    88 1   
    88    34    89 1   
    89    35    36 1   
    90    35    41 2   
    91    36    90 1   
    92    36    91 1   
    93    36    92 1   
    94    40    93 1   
    95    40    95 1   
    96    41    44 1   
    97    42    95 1   
    98    43    95 2   
    99    57    96 1   
   100    58    96 1   
   101    59    96 1   
@<TRIPOS>SUBSTRUCTURE
     1 YN0         1 TEMP              0 ****  ****    0 ROOT
