@<TRIPOS>MOLECULE
YN3
   73    76     1     0     0
SMALL
abcg2


@<TRIPOS>ATOM
      1 C1          61.3270    -5.7020    72.5880 c3         1 YN3       0.148600
      2 C5          60.7040    -6.8990    74.6140 c3         1 YN3       0.158800
      3 C6          59.5960    -7.8110    74.0690 c3         1 YN3       0.168000
      4 C12         61.1330   -10.0690    70.9040 c5         1 YN3       0.211300
      5 C13         61.1860   -10.9930    69.7420 cc         1 YN3      -0.224300
      6 C14         62.0080   -11.7310    68.8700 cc         1 YN3       0.418900
      7 C16         64.2940   -11.1630    69.5040 c          1 YN3       0.634700
      8 O17         63.9700   -10.3050    70.3080 o          1 YN3      -0.594100
      9 C19         66.1580   -12.7300    68.7930 ca         1 YN3      -0.038000
     10 C21         68.4510   -11.9970    68.8030 ca         1 YN3       0.013000
     11 C23         70.5230   -13.2450    68.1970 c          1 YN3       0.607100
     12 C25         72.0190   -13.0120    68.1580 c3         1 YN3      -0.159400
     13 C26         72.7840   -14.1160    67.4520 c3         1 YN3      -0.077100
     14 C27         68.0140   -10.7480    69.2600 ca         1 YN3      -0.167000
     15 C28         66.6770   -10.5020    69.4840 ca         1 YN3      -0.038000
     16 C35         57.9210   -11.6890    70.7440 c3         1 YN3      -0.098100
     17 C36         59.1660    -8.7840    75.1510 ca         1 YN3      -0.101300
     18 C37         59.9050    -9.9330    75.4180 ca         1 YN3      -0.095500
     19 C38         59.5280   -10.7950    76.4390 ca         1 YN3      -0.112000
     20 C39         58.4030   -10.5200    77.2070 ca         1 YN3      -0.109000
     21 C40         57.6600    -9.3770    76.9460 ca         1 YN3      -0.112000
     22 O24         70.0090   -14.3060    67.9040 o          1 YN3      -0.566100
     23 N22         69.8180   -12.1500    68.6090 ns         1 YN3      -0.153000
     24 C18         65.7200   -11.4870    69.2390 ca         1 YN3      -0.188600
     25 C20         67.5010   -12.9960    68.5780 ca         1 YN3      -0.167000
     26 N15         63.3860   -11.8640    68.7820 ns         1 YN3      -0.468400
     27 N29         61.2770   -12.4110    68.0000 nd         1 YN3      -0.581800
     28 N30         60.0030   -12.1290    68.2980 na         1 YN3       0.024800
     29 C32         59.9220   -11.2890    69.3290 cd         1 YN3      -0.152300
     30 N11         59.6790    -9.9230    71.0940 n          1 YN3      -0.450800
     31 O10         57.9320    -9.0220    72.2400 o          1 YN3      -0.646100
     32 N8          60.0340    -8.4930    72.8710 ns         1 YN3      -0.517900
     33 N2          60.8310    -5.6190    73.9480 n3         1 YN3      -0.713600
     34 C4          61.6590    -4.7270    74.7340 c3         1 YN3       0.148600
     35 C41         58.0420    -8.5170    75.9250 ca         1 YN3      -0.095500
     36 C33         58.8300   -10.6360    70.1070 c5         1 YN3       0.232700
     37 C34         58.0330    -9.6800    69.2170 c3         1 YN3      -0.098100
     38 H42         61.4330    -4.6960    72.1820 h1         1 YN3       0.032033
     39 H43         62.3090    -6.1960    72.5150 h1         1 YN3       0.032033
     40 H44         60.6320    -6.2420    71.9490 h1         1 YN3       0.032033
     41 H49         61.6570    -7.4610    74.6340 h1         1 YN3       0.037700
     42 H48         60.4580    -6.6940    75.6580 h1         1 YN3       0.037700
     43 H7          58.7450    -7.1710    73.8230 h1         1 YN3       0.095700
     44 H51         61.6060   -10.4900    71.7960 h1         1 YN3       0.057700
     45 H52         61.6040    -9.1040    70.7000 h1         1 YN3       0.057700
     46 H54         65.4580   -13.5400    68.6270 ha         1 YN3       0.125500
     47 H57         72.3660   -12.9110    69.1920 hc         1 YN3       0.058700
     48 H73         72.2190   -12.0460    67.6860 hc         1 YN3       0.058700
     49 H58         73.8490   -13.8870    67.4560 hc         1 YN3       0.045700
     50 H59         72.6510   -15.0790    67.9430 hc         1 YN3       0.045700
     51 H1          72.4720   -14.2210    66.4130 hc         1 YN3       0.045700
     52 H60         68.7370    -9.9610    69.4430 ha         1 YN3       0.133500
     53 H61         66.3720    -9.5280    69.8420 ha         1 YN3       0.125500
     54 H66         57.1330   -11.2260    71.3320 hc         1 YN3       0.051533
     55 H67         57.4510   -12.2900    69.9630 hc         1 YN3       0.051533
     56 H65         58.4920   -12.3570    71.3880 hc         1 YN3       0.051533
     57 H68         60.7790   -10.1690    74.8220 ha         1 YN3       0.111500
     58 H69         60.1120   -11.6850    76.6340 ha         1 YN3       0.111000
     59 H70         58.1060   -11.1950    77.9990 ha         1 YN3       0.110000
     60 H71         56.7770    -9.1560    77.5330 ha         1 YN3       0.111000
     61 H56         70.3680   -11.3290    68.8160 hn         1 YN3       0.151000
     62 H55         67.7940   -13.9770    68.2430 ha         1 YN3       0.133500
     63 H53         63.7070   -12.4810    68.0510 hn         1 YN3       0.338500
     64 H31         59.2620   -12.5420    67.7550 hn         1 YN3       0.381000
     65 H50         61.0190    -8.6860    72.7990 hn         1 YN3       0.309500
     66 H45         61.2430    -4.6080    75.7360 h1         1 YN3       0.032033
     67 H46         62.6980    -5.0760    74.8420 h1         1 YN3       0.032033
     68 H47         61.6890    -3.7410    74.2680 h1         1 YN3       0.032033
     69 H72         57.4540    -7.6280    75.7240 ha         1 YN3       0.111500
     70 H64         57.2510    -9.1780    69.7810 hc         1 YN3       0.051533
     71 H62         58.6880    -8.9270    68.7780 hc         1 YN3       0.051533
     72 H63         57.5620   -10.2350    68.4050 hc         1 YN3       0.051533
     73 C9          59.1420    -9.1490    72.0760 c          1 YN3       0.664100
@<TRIPOS>BOND
     1     1    33 1   
     2     1    38 1   
     3     1    39 1   
     4     1    40 1   
     5     2     3 1   
     6     2    33 1   
     7     2    41 1   
     8     2    42 1   
     9     3    17 1   
    10     3    32 1   
    11     3    43 1   
    12     4     5 1   
    13     4    30 1   
    14     4    44 1   
    15     4    45 1   
    16     5     6 1   
    17     5    29 2   
    18     6    26 1   
    19     6    27 2   
    20     7     8 2   
    21     7    24 1   
    22     7    26 1   
    23     9    24 ar  
    24     9    25 ar  
    25     9    46 1   
    26    10    14 ar  
    27    10    23 1   
    28    10    25 ar  
    29    11    12 1   
    30    11    22 2   
    31    11    23 1   
    32    12    13 1   
    33    12    47 1   
    34    12    48 1   
    35    13    49 1   
    36    13    50 1   
    37    13    51 1   
    38    14    15 ar  
    39    14    52 1   
    40    15    24 ar  
    41    15    53 1   
    42    16    36 1   
    43    16    54 1   
    44    16    55 1   
    45    16    56 1   
    46    17    18 ar  
    47    17    35 ar  
    48    18    19 ar  
    49    18    57 1   
    50    19    20 ar  
    51    19    58 1   
    52    20    21 ar  
    53    20    59 1   
    54    21    35 ar  
    55    21    60 1   
    56    23    61 1   
    57    25    62 1   
    58    26    63 1   
    59    27    28 1   
    60    28    29 1   
    61    28    64 1   
    62    29    36 1   
    63    30    36 1   
    64    30    73 1   
    65    31    73 2   
    66    32    65 1   
    67    32    73 1   
    68    33    34 1   
    69    34    66 1   
    70    34    67 1   
    71    34    68 1   
    72    35    69 1   
    73    36    37 1   
    74    37    70 1   
    75    37    71 1   
    76    37    72 1   
@<TRIPOS>SUBSTRUCTURE
     1 YN3         1 TEMP              0 ****  ****    0 ROOT
