@<TRIPOS>MOLECULE
YN3
   73    76     1     0     0
SMALL
No Charge or Current Charge


@<TRIPOS>ATOM
      1 C1          60.0530    -5.6890    72.1940 c3         1 YN3       0.148600
      2 C5          60.7310    -6.8110    74.3270 c3         1 YN3       0.158800
      3 C6          59.9200    -8.1340    74.1590 c3         1 YN3       0.168000
      4 C12         61.0000    -9.8200    70.3940 c5         1 YN3       0.211300
      5 C13         60.8700   -10.4450    69.0580 cc         1 YN3      -0.224300
      6 C14         61.7620   -11.2420    68.3240 cc         1 YN3       0.418900
      7 C16         64.0430   -10.6590    69.1410 c          1 YN3       0.634700
      8 O17         63.7740    -9.5690    69.6210 o          1 YN3      -0.594100
      9 C19         65.7640   -12.5290    68.7520 ca         1 YN3      -0.038000
     10 C21         68.1010   -12.2440    69.4240 ca         1 YN3       0.013000
     11 C23         70.0750   -13.8850    69.2680 c          1 YN3       0.607100
     12 C25         71.5810   -13.8980    69.5690 c3         1 YN3      -0.159400
     13 C26         72.4260   -13.8770    68.2750 c3         1 YN3      -0.077100
     14 C27         67.7830   -10.9590    69.8930 ca         1 YN3      -0.167000
     15 C28         66.4740   -10.4580    69.7990 ca         1 YN3      -0.038000
     16 C35         57.8670   -11.5200    70.1760 c3         1 YN3      -0.098100
     17 C36         60.2410    -9.1490    75.2560 ca         1 YN3      -0.101300
     18 C37         61.5750    -9.5130    75.5410 ca         1 YN3      -0.095500
     19 C38         61.8550   -10.4540    76.5480 ca         1 YN3      -0.112000
     20 C39         60.8060   -11.0410    77.2740 ca         1 YN3      -0.109000
     21 C40         59.4760   -10.6900    76.9910 ca         1 YN3      -0.112000
     22 O24         69.5020   -14.8820    68.8440 o          1 YN3      -0.566100
     23 N22         69.4480   -12.6790    69.5530 ns         1 YN3      -0.153000
     24 C18         65.4430   -11.2340    69.2240 ca         1 YN3      -0.188600
     25 C20         67.0770   -13.0250    68.8500 ca         1 YN3      -0.167000
     26 N15         63.1120   -11.4290    68.4880 ns         1 YN3      -0.468400
     27 N29         61.1180   -11.9760    67.4320 nd         1 YN3      -0.581800
     28 N30         59.7600   -11.6480    67.6460 na         1 YN3       0.024800
     29 C32         59.6340   -10.6650    68.6300 cd         1 YN3      -0.152300
     30 N11         59.5670    -9.7440    70.8030 n          1 YN3      -0.450800
     31 O10         57.9540    -9.1490    72.3380 o          1 YN3      -0.646100
     32 N8          60.1300    -8.7630    72.8490 ns         1 YN3      -0.517900
     33 N2          60.1810    -5.5880    73.6670 n3         1 YN3      -0.713600
     34 C4          60.9140    -4.3670    74.0710 c3         1 YN3       0.148600
     35 C41         59.1940    -9.7500    75.9850 ca         1 YN3      -0.095500
     36 C33         58.6590   -10.2710    69.7200 c5         1 YN3       0.232700
     37 C34         57.7120    -9.1850    69.1590 c3         1 YN3      -0.098100
     38 H42         59.7070    -4.7380    71.7680 h1         1 YN3       0.032033
     39 H43         61.0170    -5.9400    71.7310 h1         1 YN3       0.032033
     40 H44         59.3190    -6.4530    71.9110 h1         1 YN3       0.032033
     41 H49         61.7620    -6.9860    73.9890 h1         1 YN3       0.037700
     42 H48         60.7890    -6.6160    75.4060 h1         1 YN3       0.037700
     43 H7          58.8610    -7.8580    74.2560 h1         1 YN3       0.095700
     44 H51         61.5900   -10.4490    71.0740 h1         1 YN3       0.057700
     45 H52         61.4490    -8.8200    70.3240 h1         1 YN3       0.057700
     46 H54         65.0100   -13.1750    68.3090 ha         1 YN3       0.125500
     47 H57         71.8220   -14.8150    70.1200 hc         1 YN3       0.058700
     48 H73         71.8550   -13.0230    70.1710 hc         1 YN3       0.058700
     49 H58         73.4960   -13.8890    68.5150 hc         1 YN3       0.045700
     50 H59         72.2060   -14.7520    67.6510 hc         1 YN3       0.045700
     51 H1          72.2170   -12.9730    67.6890 hc         1 YN3       0.045700
     52 H60         68.5570   -10.3370    70.3390 ha         1 YN3       0.133500
     53 H61         66.2660    -9.4580    70.1750 ha         1 YN3       0.125500
     54 H66         57.1520   -11.2790    70.9700 hc         1 YN3       0.051533
     55 H67         57.2980   -11.9550    69.3460 hc         1 YN3       0.051533
     56 H65         58.5420   -12.2940    70.5590 hc         1 YN3       0.051533
     57 H68         62.3970    -9.0730    74.9820 ha         1 YN3       0.111500
     58 H69         62.8850   -10.7280    76.7630 ha         1 YN3       0.111000
     59 H70         61.0240   -11.7700    78.0530 ha         1 YN3       0.110000
     60 H71         58.6630   -11.1480    77.5500 ha         1 YN3       0.111000
     61 H56         70.0700   -11.9690    69.9170 hn         1 YN3       0.151000
     62 H55         67.2740   -14.0220    68.4690 ha         1 YN3       0.133500
     63 H53         63.4950   -12.2290    68.0120 hn         1 YN3       0.338500
     64 H31         59.0020   -12.1250    67.1570 hn         1 YN3       0.381000
     65 H50         61.0770    -8.8610    72.5160 hn         1 YN3       0.309500
     66 H45         60.9220    -4.2620    75.1650 h1         1 YN3       0.032033
     67 H46         61.9550    -4.4020    73.7220 h1         1 YN3       0.032033
     68 H47         60.4400    -3.4710    73.6510 h1         1 YN3       0.032033
     69 H72         58.1600    -9.4900    75.7720 ha         1 YN3       0.111500
     70 H64         56.9680    -8.8710    69.9000 hc         1 YN3       0.051533
     71 H62         58.2740    -8.2950    68.8520 hc         1 YN3       0.051533
     72 H63         57.1660    -9.5520    68.2820 hc         1 YN3       0.051533
     73 C9          59.1320    -9.2120    72.0250 c          1 YN3       0.664100
@<TRIPOS>BOND
     1     1    33 1   
     2     1    38 1   
     3     1    39 1   
     4     1    40 1   
     5     2     3 1   
     6     2    33 1   
     7     2    41 1   
     8     2    42 1   
     9     3    17 1   
    10     3    32 1   
    11     3    43 1   
    12     4     5 1   
    13     4    30 1   
    14     4    44 1   
    15     4    45 1   
    16     5     6 1   
    17     5    29 2   
    18     6    26 1   
    19     6    27 2   
    20     7     8 2   
    21     7    24 1   
    22     7    26 1   
    23     9    24 ar  
    24     9    25 ar  
    25     9    46 1   
    26    10    14 ar  
    27    10    23 1   
    28    10    25 ar  
    29    11    12 1   
    30    11    22 2   
    31    11    23 1   
    32    12    13 1   
    33    12    47 1   
    34    12    48 1   
    35    13    49 1   
    36    13    50 1   
    37    13    51 1   
    38    14    15 ar  
    39    14    52 1   
    40    15    24 ar  
    41    15    53 1   
    42    16    36 1   
    43    16    54 1   
    44    16    55 1   
    45    16    56 1   
    46    17    18 ar  
    47    17    35 ar  
    48    18    19 ar  
    49    18    57 1   
    50    19    20 ar  
    51    19    58 1   
    52    20    21 ar  
    53    20    59 1   
    54    21    35 ar  
    55    21    60 1   
    56    23    61 1   
    57    25    62 1   
    58    26    63 1   
    59    27    28 1   
    60    28    29 1   
    61    28    64 1   
    62    29    36 1   
    63    30    36 1   
    64    30    73 1   
    65    31    73 2   
    66    32    65 1   
    67    32    73 1   
    68    33    34 1   
    69    34    66 1   
    70    34    67 1   
    71    34    68 1   
    72    35    69 1   
    73    36    37 1   
    74    37    70 1   
    75    37    71 1   
    76    37    72 1   
@<TRIPOS>SUBSTRUCTURE
     1 YN3         1 TEMP              0 ****  ****    0 ROOT
