@<TRIPOS>MOLECULE
YN4
   61    64     1     0     0
SMALL
No Charge or Current Charge


@<TRIPOS>ATOM
      1 N           -3.7650    -3.8180     2.9870 n1         1 YN4      -0.458000
      2 C7          -3.9000    -3.1460     2.0450 c1         1 YN4       0.296900
      3 C6          -4.0360    -2.3060     0.8520 c3         1 YN4      -0.016300
      4 C5          -2.7160    -2.1960     0.0580 c3         1 YN4       0.040600
      5 S           -2.9440    -1.1910    -1.4770 ss         1 YN4      -0.156000
      6 C4          -3.3780     0.4330    -0.8390 ca         1 YN4      -0.043000
      7 C8          -2.3970     1.2920    -0.2820 ca         1 YN4      -0.027000
      8 C23         -2.8070     2.5370     0.2700 ca         1 YN4       0.237000
      9 N4          -4.1010     2.9270     0.2790 nb         1 YN4      -0.638000
     10 C24         -5.0320     2.1060    -0.2560 ca         1 YN4       0.362900
     11 C3          -4.7270     0.8630    -0.8290 ca         1 YN4      -0.135600
     12 C           -5.8610     0.0560    -1.3840 c          1 YN4       0.607700
     13 O1          -6.9810     0.1120    -0.5950 os         1 YN4      -0.447100
     14 C1          -8.1450    -0.6200    -1.0150 c3         1 YN4       0.166600
     15 C2          -9.2340    -0.3940     0.0450 c3         1 YN4      -0.098100
     16 O           -5.8060    -0.5650    -2.4370 o          1 YN4      -0.454000
     17 C22         -1.8330     3.3870     0.8270 ca         1 YN4      -0.044000
     18 C21         -0.4740     3.0290     0.8450 ca         1 YN4      -0.172000
     19 C10         -0.0680     1.7980     0.2960 ca         1 YN4       0.159100
     20 C9          -1.0260     0.9400    -0.2630 ca         1 YN4      -0.157000
     21 O2           1.2480     1.3880     0.2790 os         1 YN4      -0.343100
     22 C11          2.3070     2.1880     0.8260 c3         1 YN4       0.232900
     23 C12          3.6080     1.4310     0.6400 ca         1 YN4      -0.224300
     24 C20          4.3440     1.5760    -0.5470 ca         1 YN4       0.420900
     25 N3           5.5090     0.9350    -0.7800 nb         1 YN4      -0.760000
     26 C15          5.9810     0.1160     0.1750 ca         1 YN4       0.640900
     27 C14          5.3080    -0.0910     1.3940 ca         1 YN4      -0.240000
     28 C13          4.1000     0.5760     1.6360 ca         1 YN4      -0.006000
     29 N1           7.1940    -0.5210    -0.1490 nh         1 YN4      -0.776300
     30 C19          8.3020     0.2410    -0.8250 c6         1 YN4       0.218800
     31 C18          9.3180    -0.6900    -1.5660 c6         1 YN4       0.143300
     32 N2           9.8390    -1.7920    -0.7080 n7         1 YN4      -0.858400
     33 C17          8.7150    -2.5770    -0.1240 c6         1 YN4       0.143300
     34 C16          7.6830    -1.6920     0.6520 c6         1 YN4       0.218800
     35 H61C        -4.8190    -2.7280     0.2130 hc         1 YN4       0.081700
     36 H62C        -4.3690    -1.3110     1.1660 hc         1 YN4       0.081700
     37 H51C        -1.9400    -1.7310     0.6800 h1         1 YN4       0.085200
     38 H52C        -2.3720    -3.1980    -0.2320 h1         1 YN4       0.085200
     39 H9          -0.6780     0.0040    -0.6870 ha         1 YN4       0.146000
     40 H22         -2.1400     4.3390     1.2520 ha         1 YN4       0.135000
     41 H24         -6.0570     2.4740    -0.2290 h4         1 YN4       0.034100
     42 H11C        -8.5020    -0.2640    -1.9900 h1         1 YN4       0.051200
     43 H12C        -7.9260    -1.6930    -1.0930 h1         1 YN4       0.051200
     44 H21C        -8.9010    -0.7570     1.0240 hc         1 YN4       0.048367
     45 H22C        -9.4770     0.6720     0.1280 hc         1 YN4       0.048367
     46 H23C       -10.1480    -0.9350    -0.2300 hc         1 YN4       0.048367
     47 H21          0.2400     3.7170     1.2870 ha         1 YN4       0.124000
     48 H111         2.3670     3.1560     0.3120 h1         1 YN4       0.041200
     49 H112         2.1390     2.3740     1.8950 h1         1 YN4       0.041200
     50 H20          3.9900     2.2300    -1.3430 h4         1 YN4       0.016100
     51 H13          3.5620     0.4320     2.5720 ha         1 YN4       0.117000
     52 H14          5.7140    -0.7490     2.1540 ha         1 YN4       0.123000
     53 H191         7.9100     0.9540    -1.5640 h1         1 YN4       0.056450
     54 H192         8.8510     0.8290    -0.0740 h1         1 YN4       0.056450
     55 H161         8.1550    -1.3340     1.5800 h1         1 YN4       0.056450
     56 H162         6.8420    -2.3390     0.9400 h1         1 YN4       0.056450
     57 H181         8.8170    -1.1260    -2.4430 h1         1 YN4       0.040700
     58 H182        10.1590    -0.0860    -1.9390 h1         1 YN4       0.040700
     59 H2          10.4260    -2.4150    -1.2780 hn         1 YN4       0.415000
     60 H171         8.1850    -3.1000    -0.9350 h1         1 YN4       0.040700
     61 H172         9.1150    -3.3470     0.5520 h1         1 YN4       0.040700
@<TRIPOS>BOND
     1     1     2 3   
     2     2     3 1   
     3     3     4 1   
     4     3    35 1   
     5     3    36 1   
     6     4     5 1   
     7     4    37 1   
     8     4    38 1   
     9     5     6 1   
    10     6     7 ar  
    11     6    11 ar  
    12     7     8 ar  
    13     7    20 ar  
    14     8     9 ar  
    15     8    17 ar  
    16     9    10 ar  
    17    10    11 ar  
    18    10    41 1   
    19    11    12 1   
    20    12    13 1   
    21    12    16 2   
    22    13    14 1   
    23    14    15 1   
    24    14    42 1   
    25    14    43 1   
    26    15    44 1   
    27    15    45 1   
    28    15    46 1   
    29    17    18 ar  
    30    17    40 1   
    31    18    19 ar  
    32    18    47 1   
    33    19    20 ar  
    34    19    21 1   
    35    20    39 1   
    36    21    22 1   
    37    22    23 1   
    38    22    48 1   
    39    22    49 1   
    40    23    24 ar  
    41    23    28 ar  
    42    24    25 ar  
    43    24    50 1   
    44    25    26 ar  
    45    26    27 ar  
    46    26    29 1   
    47    27    28 ar  
    48    27    52 1   
    49    28    51 1   
    50    29    30 1   
    51    29    34 1   
    52    30    31 1   
    53    30    53 1   
    54    30    54 1   
    55    31    32 1   
    56    31    57 1   
    57    31    58 1   
    58    32    33 1   
    59    32    59 1   
    60    33    34 1   
    61    33    60 1   
    62    33    61 1   
    63    34    55 1   
    64    34    56 1   
@<TRIPOS>SUBSTRUCTURE
     1 YN4         1 TEMP              0 ****  ****    0 ROOT
