@<TRIPOS>MOLECULE
YN4
   61    64     1     0     0
SMALL
abcg2


@<TRIPOS>ATOM
      1 N           -3.3330    -3.5520     3.1400 n1         1 YN4      -0.458000
      2 C7          -3.5720    -2.9560     2.1860 c1         1 YN4       0.296900
      3 C6          -3.8530    -2.2050     0.9720 c3         1 YN4      -0.016300
      4 C5          -2.5990    -2.0660     0.1110 c3         1 YN4       0.040600
      5 S           -2.9520    -1.1960    -1.4450 ss         1 YN4      -0.156000
      6 C4          -3.3450     0.4140    -0.8120 ca         1 YN4      -0.043000
      7 C8          -2.3350     1.2310    -0.2270 ca         1 YN4      -0.027000
      8 C23         -2.7470     2.4690     0.3350 ca         1 YN4       0.237000
      9 N4          -4.0290     2.8960     0.3110 nb         1 YN4      -0.638000
     10 C24         -4.9240     2.1430    -0.2570 ca         1 YN4       0.362900
     11 C3          -4.6340     0.8880    -0.8480 ca         1 YN4      -0.135600
     12 C           -5.7390     0.1400    -1.5090 c          1 YN4       0.607700
     13 O1          -6.7920     0.0530    -0.7180 os         1 YN4      -0.447100
     14 C1          -7.9770    -0.5820    -1.2360 c3         1 YN4       0.166600
     15 C2          -9.0230    -0.5570    -0.1490 c3         1 YN4      -0.098100
     16 O           -5.6790    -0.3000    -2.6280 o          1 YN4      -0.454000
     17 C22         -1.7780     3.2950     0.9390 ca         1 YN4      -0.044000
     18 C21         -0.4610     2.9310     0.9790 ca         1 YN4      -0.172000
     19 C10         -0.0470     1.7080     0.3990 ca         1 YN4       0.159100
     20 C9          -0.9750     0.8790    -0.1900 ca         1 YN4      -0.157000
     21 O2           1.2290     1.2920     0.3800 os         1 YN4      -0.343100
     22 C11          2.2480     2.1290     0.9320 c3         1 YN4       0.232900
     23 C12          3.5520     1.4340     0.7420 ca         1 YN4      -0.224300
     24 C20          4.3850     1.7330    -0.3220 ca         1 YN4       0.420900
     25 N3           5.5380     1.1310    -0.5660 nb         1 YN4      -0.760000
     26 C15          5.9570     0.1540     0.2420 ca         1 YN4       0.640900
     27 C14          5.1910    -0.2130     1.3720 ca         1 YN4      -0.240000
     28 C13          3.9960     0.4280     1.6010 ca         1 YN4      -0.006000
     29 N1           7.1260    -0.4670    -0.0920 nh         1 YN4      -0.776300
     30 C19          8.0120     0.1210    -1.0850 c6         1 YN4       0.218800
     31 C18          8.7760    -0.9570    -1.8280 c6         1 YN4       0.143300
     32 N2           9.5030    -1.7830    -0.8840 n7         1 YN4      -0.858400
     33 C17          8.5740    -2.4330     0.0170 c6         1 YN4       0.143300
     34 C16          7.7920    -1.3950     0.8040 c6         1 YN4       0.218800
     35 H61C        -4.6410    -2.7200     0.4210 hc         1 YN4       0.081700
     36 H62C        -4.2390    -1.2270     1.2660 hc         1 YN4       0.081700
     37 H51C        -1.7980    -1.5690     0.6580 h1         1 YN4       0.085200
     38 H52C        -2.2340    -3.0460    -0.1970 h1         1 YN4       0.085200
     39 H9          -0.6410    -0.0430    -0.6490 ha         1 YN4       0.146000
     40 H22         -2.0990     4.2340     1.3700 ha         1 YN4       0.135000
     41 H24         -5.9420     2.5160    -0.2700 h4         1 YN4       0.034100
     42 H11C        -8.3170    -0.0450    -2.1230 h1         1 YN4       0.051200
     43 H12C        -7.7400    -1.6060    -1.5290 h1         1 YN4       0.051200
     44 H21C        -8.6910    -1.0970     0.7390 hc         1 YN4       0.048367
     45 H22C        -9.2820     0.4620     0.1370 hc         1 YN4       0.048367
     46 H23C        -9.9270    -1.0420    -0.5150 hc         1 YN4       0.048367
     47 H21          0.2510     3.5940     1.4500 ha         1 YN4       0.124000
     48 H111         2.2540     3.0990     0.4260 h1         1 YN4       0.041200
     49 H112         2.0520     2.3020     1.9950 h1         1 YN4       0.041200
     50 H20          4.1050     2.5170    -1.0210 h4         1 YN4       0.016100
     51 H13          3.4060     0.1470     2.4660 ha         1 YN4       0.117000
     52 H14          5.5160    -0.9750     2.0640 ha         1 YN4       0.123000
     53 H191         7.4270     0.7050    -1.7890 h1         1 YN4       0.056450
     54 H192         8.7210     0.8020    -0.5960 h1         1 YN4       0.056450
     55 H161         8.4680    -0.8550     1.4810 h1         1 YN4       0.056450
     56 H162         7.0670    -1.9240     1.4170 h1         1 YN4       0.056450
     57 H181         8.0670    -1.5360    -2.4410 h1         1 YN4       0.040700
     58 H182         9.4800    -0.4770    -2.5110 h1         1 YN4       0.040700
     59 H2          10.0410    -2.4800    -1.3810 hn         1 YN4       0.415000
     60 H171         7.8550    -3.0830    -0.5080 h1         1 YN4       0.040700
     61 H172         9.1230    -3.0600     0.7220 h1         1 YN4       0.040700
@<TRIPOS>BOND
     1     1     2 3   
     2     2     3 1   
     3     3     4 1   
     4     3    35 1   
     5     3    36 1   
     6     4     5 1   
     7     4    37 1   
     8     4    38 1   
     9     5     6 1   
    10     6     7 ar  
    11     6    11 ar  
    12     7     8 ar  
    13     7    20 ar  
    14     8     9 ar  
    15     8    17 ar  
    16     9    10 ar  
    17    10    11 ar  
    18    10    41 1   
    19    11    12 1   
    20    12    13 1   
    21    12    16 2   
    22    13    14 1   
    23    14    15 1   
    24    14    42 1   
    25    14    43 1   
    26    15    44 1   
    27    15    45 1   
    28    15    46 1   
    29    17    18 ar  
    30    17    40 1   
    31    18    19 ar  
    32    18    47 1   
    33    19    20 ar  
    34    19    21 1   
    35    20    39 1   
    36    21    22 1   
    37    22    23 1   
    38    22    48 1   
    39    22    49 1   
    40    23    24 ar  
    41    23    28 ar  
    42    24    25 ar  
    43    24    50 1   
    44    25    26 ar  
    45    26    27 ar  
    46    26    29 1   
    47    27    28 ar  
    48    27    52 1   
    49    28    51 1   
    50    29    30 1   
    51    29    34 1   
    52    30    31 1   
    53    30    53 1   
    54    30    54 1   
    55    31    32 1   
    56    31    57 1   
    57    31    58 1   
    58    32    33 1   
    59    32    59 1   
    60    33    34 1   
    61    33    60 1   
    62    33    61 1   
    63    34    55 1   
    64    34    56 1   
@<TRIPOS>SUBSTRUCTURE
     1 YN4         1 TEMP              0 ****  ****    0 ROOT
