@<TRIPOS>MOLECULE
YN5
   77    83     1     0     0
SMALL
No Charge or Current Charge


@<TRIPOS>ATOM
      1 C10        -11.2640     3.2250    -3.3130 ca         1 YN5       0.063400
      2 C13        -10.6890     5.2290    -1.4730 ca         1 YN5      -0.084000
      3 C15        -11.0280     0.7560    -0.6670 c6         1 YN5       0.089300
      4 C17        -11.7760     0.7330     1.8210 c6         1 YN5      -0.089900
      5 C20         -9.6100     0.7270    -0.0470 c6         1 YN5      -0.089900
      6 C22        -11.7860    -1.5520     3.9060 c3         1 YN5       0.146900
      7 C24        -11.4660    -0.4190    -3.6400 c6         1 YN5       0.128400
      8 C26        -13.3170    -1.3920    -5.1230 c          1 YN5       0.580000
      9 C28        -10.8690    -1.9490    -5.6160 c6         1 YN5      -0.074400
     10 C02        -10.7600     7.5190    -4.4930 cc         1 YN5       0.199300
     11 C03        -10.9720     7.0170    -3.2330 cd         1 YN5      -0.175000
     12 C04        -11.3460     8.1560    -2.4660 cd         1 YN5       0.290300
     13 C05        -11.8210     8.2050    -1.0370 c3         1 YN5      -0.133400
     14 C08        -10.9810     5.5910    -2.8150 ca         1 YN5      -0.025000
     15 C09        -11.2650     4.5580    -3.7440 ca         1 YN5      -0.041000
     16 C11        -10.9990     2.9010    -2.0160 ca         1 YN5      -0.074200
     17 C12        -10.6910     3.8810    -1.0610 ca         1 YN5      -0.113000
     18 C16        -12.1070     1.1970     0.3730 c6         1 YN5      -0.089900
     19 C18        -10.9000    -0.5510     1.8330 c6         1 YN5       0.166300
     20 C19         -9.5330    -0.2940     1.1280 c6         1 YN5      -0.089900
     21 C23        -11.3610     1.0550    -3.2350 cc         1 YN5       0.397800
     22 C27        -12.2710    -1.7080    -6.2000 c6         1 YN5      -0.158400
     23 C29        -10.4720    -0.7090    -4.8050 c6         1 YN5      -0.087400
     24 C31        -13.7910    -0.6840    -2.7760 ca         1 YN5      -0.057000
     25 C32        -13.5520    -1.4580    -1.6200 ca         1 YN5      -0.112000
     26 C33        -14.4780    -1.4710    -0.5650 ca         1 YN5       0.047100
     27 C34        -15.7000    -0.7670    -0.6890 ca         1 YN5       0.061100
     28 C35        -15.9800    -0.0620    -1.8690 ca         1 YN5      -0.108000
     29 C36        -15.0430    -0.0490    -2.9180 ca         1 YN5      -0.079000
     30 C38        -16.4710    -1.7900     1.3580 c6         1 YN5       0.117600
     31 C39        -14.9830    -1.8990     1.7550 c6         1 YN5       0.116600
     32 N06        -11.3080     9.2820    -3.1550 nc         1 YN5      -0.367300
     33 N14        -11.0880     1.5330    -1.9370 na         1 YN5      -0.164600
     34 N25        -12.8980    -0.7940    -3.9010 n          1 YN5      -0.244400
     35 N41        -11.5020     2.0970    -4.0870 nd         1 YN5      -0.566100
     36 O07        -10.9130     8.8820    -4.4720 os         1 YN5      -0.073700
     37 O21        -10.6600    -1.0330     3.1730 os         1 YN5      -0.452000
     38 O30        -14.4780    -1.7350    -5.3070 o          1 YN5      -0.540000
     39 O37        -16.6340    -0.7910     0.3270 os         1 YN5      -0.329100
     40 O40        -14.1820    -2.1750     0.5850 os         1 YN5      -0.329100
     41 H1         -10.4180     5.9850    -0.7440 ha         1 YN5       0.116000
     42 H2         -11.2560    -0.2860    -0.9130 h1         1 YN5       0.064700
     43 H3         -11.2400     1.5340     2.3490 hc         1 YN5       0.054950
     44 H4         -12.7160     0.5800     2.3670 hc         1 YN5       0.054950
     45 H5          -8.8650     0.4650    -0.8110 hc         1 YN5       0.058200
     46 H6          -9.3340     1.7230     0.3200 hc         1 YN5       0.058200
     47 H7         -11.4520    -1.9810     4.8590 h1         1 YN5       0.028700
     48 H8         -12.5130    -0.7620     4.1320 h1         1 YN5       0.028700
     49 H9         -12.2920    -2.3420     3.3360 h1         1 YN5       0.028700
     50 H10        -11.1210    -1.0520    -2.8150 h1         1 YN5       0.048700
     51 H11        -10.8670    -2.8440    -4.9780 hc         1 YN5       0.050700
     52 H12        -10.1450    -2.1250    -6.4240 hc         1 YN5       0.050700
     53 H13         -9.8000     7.6170    -6.4170 hc         1 YN5       0.064367
     54 H14         -9.6240     6.0590    -5.6010 hc         1 YN5       0.064367
     55 H15        -11.1780     6.5080    -6.3480 hc         1 YN5       0.064367
     56 H16        -12.4240     9.1010    -0.8470 hc         1 YN5       0.056700
     57 H17        -12.4460     7.3380    -0.7980 hc         1 YN5       0.056700
     58 H18        -10.9730     8.2260    -0.3430 hc         1 YN5       0.056700
     59 H19        -11.5150     4.7720    -4.7760 ha         1 YN5       0.131000
     60 H20        -10.4550     3.6310    -0.0320 ha         1 YN5       0.121000
     61 H21        -12.2490     2.2830     0.3810 hc         1 YN5       0.058200
     62 H22        -13.0780     0.7900     0.0680 hc         1 YN5       0.058200
     63 H23        -11.4340    -1.3370     1.2780 h1         1 YN5       0.032700
     64 H24         -9.1510    -1.2540     0.7540 hc         1 YN5       0.054950
     65 H25         -8.7940     0.0610     1.8600 hc         1 YN5       0.054950
     66 H26        -12.2160    -0.8180    -6.8410 hc         1 YN5       0.076700
     67 H27        -12.6220    -2.5360    -6.8310 hc         1 YN5       0.076700
     68 H28         -9.4570    -0.8290    -4.4010 hc         1 YN5       0.068700
     69 H29        -10.4180     0.1470    -5.4920 hc         1 YN5       0.068700
     70 H30        -12.6470    -2.0510    -1.5270 ha         1 YN5       0.129000
     71 H31        -16.9280     0.4570    -1.9780 ha         1 YN5       0.133000
     72 H32        -15.2810     0.4810    -3.8390 ha         1 YN5       0.142000
     73 H33        -17.0870    -1.5230     2.2270 h1         1 YN5       0.069700
     74 H34        -16.8180    -2.7600     0.9730 h1         1 YN5       0.069700
     75 H35        -14.8340    -2.6980     2.4940 h1         1 YN5       0.064200
     76 H36        -14.6520    -0.9500     2.1980 h1         1 YN5       0.064200
     77 C01        -10.3180     6.8870    -5.7840 c3         1 YN5      -0.139400
@<TRIPOS>BOND
     1     1    15 ar  
     2     1    16 ar  
     3     1    35 1   
     4     2    14 ar  
     5     2    17 ar  
     6     2    41 1   
     7     3     5 1   
     8     3    18 1   
     9     3    33 1   
    10     3    42 1   
    11     4    18 1   
    12     4    19 1   
    13     4    43 1   
    14     4    44 1   
    15     5    20 1   
    16     5    45 1   
    17     5    46 1   
    18     6    37 1   
    19     6    47 1   
    20     6    48 1   
    21     6    49 1   
    22     7    21 1   
    23     7    23 1   
    24     7    34 1   
    25     7    50 1   
    26     8    22 1   
    27     8    34 1   
    28     8    38 2   
    29     9    22 1   
    30     9    23 1   
    31     9    51 1   
    32     9    52 1   
    33    10    11 2   
    34    10    36 1   
    35    10    77 1   
    36    11    12 1   
    37    11    14 1   
    38    12    13 1   
    39    12    32 2   
    40    13    56 1   
    41    13    57 1   
    42    13    58 1   
    43    14    15 ar  
    44    15    59 1   
    45    16    17 ar  
    46    16    33 1   
    47    17    60 1   
    48    18    61 1   
    49    18    62 1   
    50    19    20 1   
    51    19    37 1   
    52    19    63 1   
    53    20    64 1   
    54    20    65 1   
    55    21    33 1   
    56    21    35 2   
    57    22    66 1   
    58    22    67 1   
    59    23    68 1   
    60    23    69 1   
    61    24    25 ar  
    62    24    29 ar  
    63    24    34 1   
    64    25    26 ar  
    65    25    70 1   
    66    26    27 ar  
    67    26    40 1   
    68    27    28 ar  
    69    27    39 1   
    70    28    29 ar  
    71    28    71 1   
    72    29    72 1   
    73    30    31 1   
    74    30    39 1   
    75    30    73 1   
    76    30    74 1   
    77    31    40 1   
    78    31    75 1   
    79    31    76 1   
    80    32    36 1   
    81    53    77 1   
    82    54    77 1   
    83    55    77 1   
@<TRIPOS>SUBSTRUCTURE
     1 YN5         1 TEMP              0 ****  ****    0 ROOT
