@<TRIPOS>MOLECULE
YN5
   77    83     1     0     0
SMALL
abcg2


@<TRIPOS>ATOM
      1 C10        -11.3650     3.0880    -3.3270 ca         1 YN5       0.063400
      2 C13        -10.9140     5.0850    -1.4850 ca         1 YN5      -0.084000
      3 C15        -10.9300     0.6120    -0.7110 c6         1 YN5       0.089300
      4 C17        -11.4540     0.7230     1.7750 c6         1 YN5      -0.089900
      5 C20         -9.5110     0.7070    -0.1590 c6         1 YN5      -0.089900
      6 C22        -11.2340    -1.5400     3.8360 c3         1 YN5       0.146900
      7 C24        -11.4650    -0.4800    -3.6030 c6         1 YN5       0.128400
      8 C26        -13.3380    -1.5110    -4.9450 c          1 YN5       0.580000
      9 C28        -10.9190    -2.0410    -5.4730 c6         1 YN5      -0.074400
     10 C02        -10.7190     7.4430    -4.2880 cc         1 YN5       0.199300
     11 C03        -11.2920     6.8270    -3.2200 cd         1 YN5      -0.175000
     12 C04        -12.0250     7.8760    -2.5870 cd         1 YN5       0.290300
     13 C05        -12.8700     7.7930    -1.3660 c3         1 YN5      -0.133400
     14 C08        -11.2140     5.4200    -2.8210 ca         1 YN5      -0.025000
     15 C09        -11.4400     4.4130    -3.7490 ca         1 YN5      -0.041000
     16 C11        -11.0820     2.7780    -1.9890 ca         1 YN5      -0.074200
     17 C12        -10.8450     3.7770    -1.0480 ca         1 YN5      -0.113000
     18 C16        -11.9800     0.9660     0.3580 c6         1 YN5      -0.089900
     19 C18        -10.5980    -0.5380     1.7910 c6         1 YN5       0.166300
     20 C19         -9.3210    -0.3130     0.9710 c6         1 YN5      -0.089900
     21 C23        -11.3760     0.9650    -3.1880 cc         1 YN5       0.397800
     22 C27        -12.3410    -1.9450    -5.9910 c6         1 YN5      -0.158400
     23 C29        -10.5690    -0.7230    -4.8130 c6         1 YN5      -0.087400
     24 C31        -13.7630    -0.6080    -2.7770 ca         1 YN5      -0.057000
     25 C32        -13.8740    -1.5790    -1.7940 ca         1 YN5      -0.112000
     26 C33        -14.7120    -1.3860    -0.7050 ca         1 YN5       0.047100
     27 C34        -15.4560    -0.2040    -0.6050 ca         1 YN5       0.061100
     28 C35        -15.3320     0.7660    -1.5900 ca         1 YN5      -0.108000
     29 C36        -14.4880     0.5710    -2.6720 ca         1 YN5      -0.079000
     30 C38        -16.5620    -1.1040     1.2410 c6         1 YN5       0.117600
     31 C39        -15.3020    -1.8980     1.4810 c6         1 YN5       0.116600
     32 N06        -11.8930     8.9940    -3.2370 nc         1 YN5      -0.367300
     33 N14        -11.1070     1.4040    -1.9220 na         1 YN5      -0.164600
     34 N25        -12.8670    -0.8270    -3.8640 n          1 YN5      -0.244400
     35 N41        -11.5390     1.9360    -4.0450 nd         1 YN5      -0.566100
     36 O07        -11.0770     8.7290    -4.2980 os         1 YN5      -0.073700
     37 O21        -10.2070    -0.9470     3.0820 os         1 YN5      -0.452000
     38 O30        -14.5260    -1.7640    -5.0580 o          1 YN5      -0.540000
     39 O37        -16.2810     0.0330     0.4390 os         1 YN5      -0.329100
     40 O40        -14.7720    -2.3490     0.2440 os         1 YN5      -0.329100
     41 H1         -10.7130     5.8780    -0.7760 ha         1 YN5       0.116000
     42 H2         -11.0900    -0.4270    -1.0020 h1         1 YN5       0.064700
     43 H3         -10.8570     1.5750     2.1180 hc         1 YN5       0.054950
     44 H4         -12.3030     0.6420     2.4570 hc         1 YN5       0.054950
     45 H5          -8.7880     0.5220    -0.9550 hc         1 YN5       0.058200
     46 H6          -9.3190     1.7160     0.2100 hc         1 YN5       0.058200
     47 H7         -10.7890    -1.9390     4.7470 h1         1 YN5       0.028700
     48 H8         -12.0170    -0.8310     4.1260 h1         1 YN5       0.028700
     49 H9         -11.7130    -2.3660     3.2960 h1         1 YN5       0.028700
     50 H10        -11.1080    -1.1240    -2.7940 h1         1 YN5       0.048700
     51 H11        -10.8240    -2.8650    -4.7610 hc         1 YN5       0.050700
     52 H12        -10.2320    -2.2500    -6.2930 hc         1 YN5       0.050700
     53 H13         -8.9790     7.6600    -5.4990 hc         1 YN5       0.064367
     54 H14         -9.4150     5.9920    -5.1150 hc         1 YN5       0.064367
     55 H15        -10.3380     6.8920    -6.3160 hc         1 YN5       0.064367
     56 H16        -13.4780     8.6880    -1.2520 hc         1 YN5       0.056700
     57 H17        -13.5300     6.9270    -1.4150 hc         1 YN5       0.056700
     58 H18        -12.2580     7.6850    -0.4700 hc         1 YN5       0.056700
     59 H19        -11.6870     4.6470    -4.7780 ha         1 YN5       0.131000
     60 H20        -10.6070     3.5650    -0.0150 ha         1 YN5       0.121000
     61 H21        -12.3000     2.0040     0.2670 hc         1 YN5       0.058200
     62 H22        -12.8680     0.3600     0.1810 hc         1 YN5       0.058200
     63 H23        -11.1880    -1.3450     1.3240 h1         1 YN5       0.032700
     64 H24         -8.9790    -1.2660     0.5610 hc         1 YN5       0.054950
     65 H25         -8.5370     0.0460     1.6410 hc         1 YN5       0.054950
     66 H26        -12.3880    -1.2230    -6.8130 hc         1 YN5       0.076700
     67 H27        -12.6940    -2.8940    -6.3970 hc         1 YN5       0.076700
     68 H28         -9.5330    -0.7010    -4.4700 hc         1 YN5       0.068700
     69 H29        -10.6920     0.0880    -5.5310 hc         1 YN5       0.068700
     70 H30        -13.3000    -2.4960    -1.8620 ha         1 YN5       0.129000
     71 H31        -15.9050     1.6810    -1.5020 ha         1 YN5       0.133000
     72 H32        -14.3960     1.3330    -3.4340 ha         1 YN5       0.142000
     73 H33        -16.9710    -0.7390     2.1830 h1         1 YN5       0.069700
     74 H34        -17.3200    -1.7290     0.7560 h1         1 YN5       0.069700
     75 H35        -15.5150    -2.7810     2.0820 h1         1 YN5       0.064200
     76 H36        -14.5590    -1.2890     2.0080 h1         1 YN5       0.064200
     77 C01         -9.8150     6.9730    -5.3620 c3         1 YN5      -0.139400
@<TRIPOS>BOND
     1     1    15 ar  
     2     1    16 ar  
     3     1    35 1   
     4     2    14 ar  
     5     2    17 ar  
     6     2    41 1   
     7     3     5 1   
     8     3    18 1   
     9     3    33 1   
    10     3    42 1   
    11     4    18 1   
    12     4    19 1   
    13     4    43 1   
    14     4    44 1   
    15     5    20 1   
    16     5    45 1   
    17     5    46 1   
    18     6    37 1   
    19     6    47 1   
    20     6    48 1   
    21     6    49 1   
    22     7    21 1   
    23     7    23 1   
    24     7    34 1   
    25     7    50 1   
    26     8    22 1   
    27     8    34 1   
    28     8    38 2   
    29     9    22 1   
    30     9    23 1   
    31     9    51 1   
    32     9    52 1   
    33    10    11 2   
    34    10    36 1   
    35    10    77 1   
    36    11    12 1   
    37    11    14 1   
    38    12    13 1   
    39    12    32 2   
    40    13    56 1   
    41    13    57 1   
    42    13    58 1   
    43    14    15 ar  
    44    15    59 1   
    45    16    17 ar  
    46    16    33 1   
    47    17    60 1   
    48    18    61 1   
    49    18    62 1   
    50    19    20 1   
    51    19    37 1   
    52    19    63 1   
    53    20    64 1   
    54    20    65 1   
    55    21    33 1   
    56    21    35 2   
    57    22    66 1   
    58    22    67 1   
    59    23    68 1   
    60    23    69 1   
    61    24    25 ar  
    62    24    29 ar  
    63    24    34 1   
    64    25    26 ar  
    65    25    70 1   
    66    26    27 ar  
    67    26    40 1   
    68    27    28 ar  
    69    27    39 1   
    70    28    29 ar  
    71    28    71 1   
    72    29    72 1   
    73    30    31 1   
    74    30    39 1   
    75    30    73 1   
    76    30    74 1   
    77    31    40 1   
    78    31    75 1   
    79    31    76 1   
    80    32    36 1   
    81    53    77 1   
    82    54    77 1   
    83    55    77 1   
@<TRIPOS>SUBSTRUCTURE
     1 YN5         1 TEMP              0 ****  ****    0 ROOT
