@<TRIPOS>MOLECULE
YN8
   40    44     1     0     0
SMALL
No Charge or Current Charge


@<TRIPOS>ATOM
      1 N1          -1.2700     7.1730    11.9720 na         1 YN8       0.156800
      2 N3          -1.7230     4.7490    15.7770 n          1 YN8      -0.225200
      3 C4          -1.1010     6.0390    13.7560 cc         1 YN8       0.190500
      4 C5          -0.6670     5.2540    14.9530 c          1 YN8       0.506500
      5 C6          -1.4030     3.8430    16.8590 ca         1 YN8      -0.025400
      6 C7          -0.6090     4.3020    17.9270 ca         1 YN8      -0.054000
      7 C8          -0.3010     3.4130    18.9690 ca         1 YN8      -0.169000
      8 C10         -1.8120     2.4770    16.8680 ca         1 YN8       0.417300
      9 C13         -2.0770     0.6150    15.0060 cx         1 YN8      -0.103400
     10 C15         -4.1570     4.5750    16.3970 ca         1 YN8      -0.119000
     11 C17         -5.8730     5.5110    14.9450 ca         1 YN8       0.154000
     12 C1          -0.8350     7.9150    10.7820 c3         1 YN8       0.062900
     13 C2          -2.5930     6.9520    12.3770 cd         1 YN8      -0.159000
     14 C3          -2.4550     6.2240    13.5170 cc         1 YN8      -0.123000
     15 N2          -0.3350     6.6010    12.8330 nd         1 YN8      -0.448800
     16 O1           0.5120     5.0240    15.2080 o          1 YN8      -0.490000
     17 C9          -0.7780     2.0950    18.9100 ca         1 YN8       0.356900
     18 N4          -1.5150     1.6280    17.8790 nb         1 YN8      -0.681000
     19 C11         -2.5800     1.8470    15.7320 cx         1 YN8      -0.207000
     20 C12         -2.1260     1.9410    14.2880 cx         1 YN8      -0.103400
     21 C14         -3.1410     5.0010    15.5070 ca         1 YN8       0.088600
     22 C16         -5.5110     4.8190    16.1130 ca         1 YN8       0.095000
     23 Cl1         -6.7420     4.2530    17.2410 cl         1 YN8      -0.163000
     24 F1          -7.1740     5.7520    14.6650 f          1 YN8      -0.160000
     25 C18         -4.8810     5.9760    14.0720 ca         1 YN8      -0.113000
     26 C19         -3.5230     5.7320    14.3570 ca         1 YN8      -0.010000
     27 H1          -0.2540     5.3300    17.9560 ha         1 YN8       0.131000
     28 H2           0.2980     3.7370    19.8150 ha         1 YN8       0.129000
     29 H4          -1.0990     0.2240    15.2770 hc         1 YN8       0.078200
     30 H5          -3.9170     4.0620    17.3230 ha         1 YN8       0.145000
     31 H6          -0.2150     8.7650    11.0890 h1         1 YN8       0.065367
     32 H7          -0.2520     7.2530    10.1320 h1         1 YN8       0.065367
     33 H8          -1.7110     8.2830    10.2350 h1         1 YN8       0.065367
     34 H9          -3.4580     7.3200    11.8380 h4         1 YN8       0.164000
     35 H10         -0.5540     1.3880    19.7080 h4         1 YN8       0.022100
     36 H11         -3.6520     1.8830    15.9080 hc         1 YN8       0.089700
     37 H12         -1.1770     2.4270    14.0740 hc         1 YN8       0.078200
     38 H13         -2.8890     2.0820    13.5260 hc         1 YN8       0.078200
     39 H14         -5.1750     6.5300    13.1850 ha         1 YN8       0.134000
     40 H3          -2.8060    -0.1420    14.7250 hc         1 YN8       0.078200
@<TRIPOS>BOND
     1     1    12 1   
     2     1    13 1   
     3     1    15 1   
     4     2     4 1   
     5     2     5 1   
     6     2    21 1   
     7     3     4 1   
     8     3    14 1   
     9     3    15 2   
    10     4    16 2   
    11     5     6 ar  
    12     5     8 ar  
    13     6     7 ar  
    14     6    27 1   
    15     7    17 ar  
    16     7    28 1   
    17     8    18 ar  
    18     8    19 1   
    19     9    19 1   
    20     9    20 1   
    21     9    29 1   
    22     9    40 1   
    23    10    21 ar  
    24    10    22 ar  
    25    10    30 1   
    26    11    22 ar  
    27    11    24 1   
    28    11    25 ar  
    29    12    31 1   
    30    12    32 1   
    31    12    33 1   
    32    13    14 2   
    33    13    34 1   
    34    14    26 1   
    35    17    18 ar  
    36    17    35 1   
    37    19    20 1   
    38    19    36 1   
    39    20    37 1   
    40    20    38 1   
    41    21    26 ar  
    42    22    23 1   
    43    25    26 ar  
    44    25    39 1   
@<TRIPOS>SUBSTRUCTURE
     1 YN8         1 TEMP              0 ****  ****    0 ROOT
