@<TRIPOS>MOLECULE
YN8
   40    44     1     0     0
SMALL
abcg2


@<TRIPOS>ATOM
      1 N1          -1.4650     7.3670    12.0230 na         1 YN8       0.156800
      2 N3          -1.8650     4.7470    15.5620 n          1 YN8      -0.225200
      3 C4          -1.3720     6.0590    13.6480 cc         1 YN8       0.190500
      4 C5          -0.8790     5.1690    14.6820 c          1 YN8       0.506500
      5 C6          -1.4280     3.8950    16.6180 ca         1 YN8      -0.025400
      6 C7          -1.0380     4.4510    17.8250 ca         1 YN8      -0.054000
      7 C8          -0.6250     3.6110    18.8440 ca         1 YN8      -0.169000
      8 C10         -1.3920     2.5090    16.4480 ca         1 YN8       0.417300
      9 C13         -2.4700     0.5150    15.2180 cx         1 YN8      -0.103400
     10 C15         -4.1330     4.5490    16.3930 ca         1 YN8      -0.119000
     11 C17         -5.9310     5.6890    15.2830 ca         1 YN8       0.154000
     12 C1          -1.0050     8.0910    10.8570 c3         1 YN8       0.062900
     13 C2          -2.7360     7.2930    12.4590 cd         1 YN8      -0.159000
     14 C3          -2.7160     6.4330    13.5390 cc         1 YN8      -0.123000
     15 N2          -0.6210     6.6290    12.7190 nd         1 YN8      -0.448800
     16 O1           0.2750     4.8090    14.8000 o          1 YN8      -0.490000
     17 C9          -0.6110     2.2480    18.5900 ca         1 YN8       0.356900
     18 N4          -0.9800     1.7160    17.4340 nb         1 YN8      -0.681000
     19 C11         -1.8130     1.8690    15.1840 cx         1 YN8      -0.207000
     20 C12         -1.0840     0.6430    14.6950 cx         1 YN8      -0.103400
     21 C14         -3.2260     5.0760    15.4750 ca         1 YN8       0.088600
     22 C16         -5.4770     4.8580    16.2960 ca         1 YN8       0.095000
     23 CL1         -6.6010     4.2180    17.4290 cl         1 YN8      -0.163000
     24 F1          -7.2330     5.9660    15.1970 f          1 YN8      -0.160000
     25 C18         -5.0530     6.2210    14.3720 ca         1 YN8      -0.113000
     26 C19         -3.6950     5.9270    14.4580 ca         1 YN8      -0.010000
     27 H1          -1.0780     5.5240    17.9630 ha         1 YN8       0.131000
     28 H2          -0.3200     3.9980    19.8060 ha         1 YN8       0.129000
     29 H4          -2.6010     0.0550    16.1890 hc         1 YN8       0.078200
     30 H5          -3.8110     3.8970    17.1910 ha         1 YN8       0.145000
     31 H6           0.0210     8.4060    11.0220 h1         1 YN8       0.065367
     32 H7          -1.0520     7.4580     9.9720 h1         1 YN8       0.065367
     33 H8          -1.6300     8.9660    10.7080 h1         1 YN8       0.065367
     34 H9          -3.5340     7.8420    11.9850 h4         1 YN8       0.164000
     35 H10         -0.2860     1.5540    19.3570 h4         1 YN8       0.022100
     36 H11         -2.1670     2.5440    14.4160 hc         1 YN8       0.089700
     37 H12         -0.2740     0.2720    15.3080 hc         1 YN8       0.078200
     38 H13         -0.9230     0.5660    13.6280 hc         1 YN8       0.078200
     39 H14         -5.4240     6.8700    13.5880 ha         1 YN8       0.134000
     40 H3          -3.2790     0.3440    14.5200 hc         1 YN8       0.078200
@<TRIPOS>BOND
     1     1    12 1   
     2     1    13 1   
     3     1    15 1   
     4     2     4 1   
     5     2     5 1   
     6     2    21 1   
     7     3     4 1   
     8     3    14 1   
     9     3    15 2   
    10     4    16 2   
    11     5     6 ar  
    12     5     8 ar  
    13     6     7 ar  
    14     6    27 1   
    15     7    17 ar  
    16     7    28 1   
    17     8    18 ar  
    18     8    19 1   
    19     9    19 1   
    20     9    20 1   
    21     9    29 1   
    22     9    40 1   
    23    10    21 ar  
    24    10    22 ar  
    25    10    30 1   
    26    11    22 ar  
    27    11    24 1   
    28    11    25 ar  
    29    12    31 1   
    30    12    32 1   
    31    12    33 1   
    32    13    14 2   
    33    13    34 1   
    34    14    26 1   
    35    17    18 ar  
    36    17    35 1   
    37    19    20 1   
    38    19    36 1   
    39    20    37 1   
    40    20    38 1   
    41    21    26 ar  
    42    22    23 1   
    43    25    26 ar  
    44    25    39 1   
@<TRIPOS>SUBSTRUCTURE
     1 YN8         1 TEMP              0 ****  ****    0 ROOT
