@<TRIPOS>MOLECULE
YN9
   47    49     1     0     0
SMALL
abcg2


@<TRIPOS>ATOM
      1 C6         100.4450   126.9960   121.1450 c3         1 YN9      -0.019100
      2 C5          99.5320   126.0910   120.3660 ca         1 YN9      -0.072300
      3 C4          97.0960   122.2610   118.1550 c3         1 YN9       0.206900
      4 C3          97.2120   121.6920   115.2110 cp         1 YN9      -0.055000
      5 O3         103.2750   129.2170   120.2710 o          1 YN9      -0.739000
      6 C2          95.9400   121.6780   117.3950 ca         1 YN9      -0.042300
      7 O2         102.4810   128.5790   122.2550 o          1 YN9      -0.739000
      8 C1          96.0080   121.4030   116.0240 cp         1 YN9      -0.024000
      9 O1          96.9430   123.6700   118.1720 os         1 YN9      -0.355100
     10 C10         97.8550   120.6640   114.5230 ca         1 YN9      -0.089500
     11 C11         97.7150   122.9850   115.0820 ca         1 YN9      -0.089500
     12 C12        101.5580   127.5860   120.2830 c3         1 YN9      -0.204400
     13 C13         99.7270   124.7160   120.3310 ca         1 YN9      -0.084000
     14 C14         98.4660   126.6040   119.6240 ca         1 YN9      -0.084000
     15 C15         98.8970   123.8700   119.6020 ca         1 YN9      -0.172000
     16 C16         97.6260   125.7820   118.8950 ca         1 YN9      -0.172000
     17 C17         99.4810   122.2100   113.6140 ca         1 YN9      -0.069300
     18 C18         93.7490   120.5110   116.1060 ca         1 YN9      -0.151000
     19 C19         93.7080   120.8080   117.4540 ca         1 YN9       0.162000
     20 C20         98.9720   120.9200   113.7420 ca         1 YN9      -0.114000
     21 C21         98.8310   123.2360   114.2970 ca         1 YN9      -0.114000
     22 C22        100.6740   122.4900   112.7480 c3         1 YN9      -0.046800
     23 C23        102.5200   128.5510   121.0080 c          1 YN9       0.718000
     24 C7          94.9050   120.8110   115.4050 ca         1 YN9      -0.085000
     25 C8          94.7790   121.3830   118.1040 ca         1 YN9      -0.133000
     26 C9          97.8290   124.4020   118.8870 ca         1 YN9       0.102100
     27 F1          92.6000   120.5220   118.1550 f          1 YN9      -0.183000
     28 H1          99.8600   127.8080   121.5870 hc         1 YN9       0.050200
     29 H2         100.8800   126.4420   121.9790 hc         1 YN9       0.050200
     30 H3          97.0910   121.8690   119.1780 h1         1 YN9       0.044200
     31 H4          98.0490   121.9800   117.6970 h1         1 YN9       0.044200
     32 H6          97.4880   119.6480   114.6130 ha         1 YN9       0.122000
     33 H7          97.2260   123.8070   115.5880 ha         1 YN9       0.122000
     34 H8         102.1530   126.7690   119.8560 hc         1 YN9       0.019700
     35 H9         101.1240   128.1020   119.4220 hc         1 YN9       0.019700
     36 H10        100.5460   124.2800   120.8920 ha         1 YN9       0.115000
     37 H11         98.2840   127.6730   119.6220 ha         1 YN9       0.115000
     38 H12         99.0970   122.8070   119.6160 ha         1 YN9       0.107000
     39 H13         96.7980   126.2030   118.3370 ha         1 YN9       0.107000
     40 H14         92.8990   120.0570   115.6120 ha         1 YN9       0.126000
     41 H15         99.4590   120.0990   113.2290 ha         1 YN9       0.113000
     42 H16         99.2010   124.2520   114.2130 ha         1 YN9       0.113000
     43 H17        100.3690   122.7110   111.7230 hc         1 YN9       0.042033
     44 H18        101.2380   123.3500   113.1090 hc         1 YN9       0.042033
     45 H19        101.3470   121.6350   112.7070 hc         1 YN9       0.042033
     46 H20         94.9480   120.5910   114.3460 ha         1 YN9       0.118000
     47 H21         94.7210   121.5840   119.1670 ha         1 YN9       0.136000
@<TRIPOS>BOND
     1     1     2 1   
     2     1    12 1   
     3     1    28 1   
     4     1    29 1   
     5     2    13 ar  
     6     2    14 ar  
     7     3     6 1   
     8     3     9 1   
     9     3    30 1   
    10     3    31 1   
    11     4     8 1   
    12     4    10 ar  
    13     4    11 ar  
    14     5    23 1   
    15     6     8 ar  
    16     6    25 ar  
    17     7    23 1   
    18     8    24 ar  
    19     9    26 1   
    20    10    20 ar  
    21    10    32 1   
    22    11    21 ar  
    23    11    33 1   
    24    12    23 1   
    25    12    34 1   
    26    12    35 1   
    27    13    15 ar  
    28    13    36 1   
    29    14    16 ar  
    30    14    37 1   
    31    15    26 ar  
    32    15    38 1   
    33    16    26 ar  
    34    16    39 1   
    35    17    20 ar  
    36    17    21 ar  
    37    17    22 1   
    38    18    19 ar  
    39    18    24 ar  
    40    18    40 1   
    41    19    25 ar  
    42    19    27 1   
    43    20    41 1   
    44    21    42 1   
    45    22    43 1   
    46    22    44 1   
    47    22    45 1   
    48    24    46 1   
    49    25    47 1   
@<TRIPOS>SUBSTRUCTURE
     1 YN9         1 TEMP              0 ****  ****    0 ROOT
