@<TRIPOS>MOLECULE
YN9
   47    49     1     0     0
SMALL
No Charge or Current Charge


@<TRIPOS>ATOM
      1 C6         100.5280   127.0740   121.0350 c3         1 YN9      -0.019100
      2 C5          99.5530   126.1430   120.3260 ca         1 YN9      -0.072300
      3 C4          97.0100   122.2030   118.2070 c3         1 YN9       0.206900
      4 C3          97.2090   121.6600   115.2140 cp         1 YN9      -0.055000
      5 O3         102.2980   129.7260   120.9110 o          1 YN9      -0.739000
      6 C2          95.8520   121.6400   117.3860 ca         1 YN9      -0.042300
      7 O2         103.5450   128.0430   121.4090 o          1 YN9      -0.739000
      8 C1          95.9640   121.3710   115.9890 cp         1 YN9      -0.024000
      9 O1          96.8300   123.6230   118.3480 os         1 YN9      -0.355100
     10 C10         97.8460   120.6380   114.4720 ca         1 YN9      -0.089500
     11 C11         97.7690   122.9590   115.1740 ca         1 YN9      -0.089500
     12 C12        101.6260   127.6060   120.0840 c3         1 YN9      -0.204400
     13 C13         99.8080   124.7590   120.2660 ca         1 YN9      -0.084000
     14 C14         98.3900   126.6580   119.7210 ca         1 YN9      -0.084000
     15 C15         98.9100   123.8970   119.6110 ca         1 YN9      -0.172000
     16 C16         97.4930   125.7970   119.0660 ca         1 YN9      -0.172000
     17 C17         99.5670   122.1920   113.7170 ca         1 YN9      -0.069300
     18 C18         93.6600   120.5160   115.9990 ca         1 YN9      -0.151000
     19 C19         93.5590   120.7980   117.3670 ca         1 YN9       0.162000
     20 C20         99.0130   120.8990   113.7340 ca         1 YN9      -0.114000
     21 C21         98.9360   123.2220   114.4380 ca         1 YN9      -0.114000
     22 C22        100.8290   122.4770   112.9160 c3         1 YN9      -0.046800
     23 C23        102.5780   128.5390   120.8510 c          1 YN9       0.718000
     24 C7          94.8550   120.7990   115.3180 ca         1 YN9      -0.085000
     25 C8          94.6450   121.3520   118.0580 ca         1 YN9      -0.133000
     26 C9          97.7450   124.4170   119.0070 ca         1 YN9       0.102100
     27 F1          92.4100   120.5270   118.0250 f          1 YN9      -0.183000
     28 H1          99.9870   127.9230   121.4710 hc         1 YN9       0.050200
     29 H2         101.0020   126.5520   121.8760 hc         1 YN9       0.050200
     30 H3          97.0220   121.7190   119.1930 h1         1 YN9       0.044200
     31 H4          97.9650   121.9760   117.7160 h1         1 YN9       0.044200
     32 H6          97.4330   119.6310   114.4770 ha         1 YN9       0.122000
     33 H7          97.2870   123.7710   115.7140 ha         1 YN9       0.122000
     34 H8         102.1630   126.7210   119.7210 hc         1 YN9       0.019700
     35 H9         101.0990   128.1570   119.2960 hc         1 YN9       0.019700
     36 H10        100.7050   124.3510   120.7270 ha         1 YN9       0.115000
     37 H11         98.1840   127.7250   119.7570 ha         1 YN9       0.115000
     38 H12         99.1370   122.8350   119.5830 ha         1 YN9       0.107000
     39 H13         96.5980   126.2020   118.6010 ha         1 YN9       0.107000
     40 H14         92.8160   120.0820   115.4690 ha         1 YN9       0.126000
     41 H15         99.4870   120.0950   113.1750 ha         1 YN9       0.113000
     42 H16         99.3470   124.2300   114.4250 ha         1 YN9       0.113000
     43 H17        100.5810   122.7810   111.8930 hc         1 YN9       0.042033
     44 H18        101.4180   123.2820   113.3720 hc         1 YN9       0.042033
     45 H19        101.4730   121.5920   112.8570 hc         1 YN9       0.042033
     46 H20         94.9240   120.5840   114.2540 ha         1 YN9       0.118000
     47 H21         94.5490   121.5560   119.1210 ha         1 YN9       0.136000
@<TRIPOS>BOND
     1     1     2 1   
     2     1    12 1   
     3     1    28 1   
     4     1    29 1   
     5     2    13 ar  
     6     2    14 ar  
     7     3     6 1   
     8     3     9 1   
     9     3    30 1   
    10     3    31 1   
    11     4     8 1   
    12     4    10 ar  
    13     4    11 ar  
    14     5    23 1   
    15     6     8 ar  
    16     6    25 ar  
    17     7    23 1   
    18     8    24 ar  
    19     9    26 1   
    20    10    20 ar  
    21    10    32 1   
    22    11    21 ar  
    23    11    33 1   
    24    12    23 1   
    25    12    34 1   
    26    12    35 1   
    27    13    15 ar  
    28    13    36 1   
    29    14    16 ar  
    30    14    37 1   
    31    15    26 ar  
    32    15    38 1   
    33    16    26 ar  
    34    16    39 1   
    35    17    20 ar  
    36    17    21 ar  
    37    17    22 1   
    38    18    19 ar  
    39    18    24 ar  
    40    18    40 1   
    41    19    25 ar  
    42    19    27 1   
    43    20    41 1   
    44    21    42 1   
    45    22    43 1   
    46    22    44 1   
    47    22    45 1   
    48    24    46 1   
    49    25    47 1   
@<TRIPOS>SUBSTRUCTURE
     1 YN9         1 TEMP              0 ****  ****    0 ROOT
