@<TRIPOS>MOLECULE
YNA
   46    49     1     0     0
SMALL
abcg2


@<TRIPOS>ATOM
      1 C28         -4.3390     0.2840   150.2270 c3         1 YNA       0.079300
      2 C29         -4.0450    -1.5020   148.6060 cc         1 YNA       0.517800
      3 C26         -5.3670     0.4520   148.0170 c          1 YNA       0.600600
      4 C23         -6.8870     1.9040   143.9520 ca         1 YNA      -0.041000
      5 C22         -7.6500     2.9980   143.5980 ca         1 YNA      -0.161000
      6 C14         -6.2060     0.1090   145.5380 cc         1 YNA      -0.022000
      7 C15         -7.0100     1.2860   145.2030 ca         1 YNA      -0.053000
      8 C16         -7.9330     1.8120   146.0920 ca         1 YNA       0.006000
      9 C13         -5.9340    -0.9280   144.6840 cd         1 YNA      -0.166000
     10 C02         -3.1730    -2.7430   144.2520 c          1 YNA       0.594100
     11 C04         -1.2470    -3.9690   143.3040 ca         1 YNA       0.031000
     12 C05         -0.7420    -5.2330   142.9750 ca         1 YNA      -0.007000
     13 C07          0.5370    -5.3620   142.4630 ca         1 YNA       0.374900
     14 C09          0.8730    -3.1300   142.5670 ca         1 YNA       0.361900
     15 C10         -0.3880    -2.8900   143.0820 ca         1 YNA      -0.187000
     16 C17         -8.7070     2.9240   145.7490 ca         1 YNA      -0.124000
     17 C18         -9.6470     3.4380   146.6850 cg         1 YNA       0.324000
     18 C20         -8.5720     3.5340   144.4930 ca         1 YNA       0.191100
     19 C24         -4.9280    -1.4450   146.5840 cd         1 YNA       0.129400
     20 C25         -5.5560    -0.2220   146.7700 cc         1 YNA      -0.250600
     21 N03         -2.5280    -3.8620   143.8110 ns         1 YNA      -0.147000
     22 N08          1.3430    -4.3320   142.2580 nb         1 YNA      -0.671000
     23 N12         -5.1780    -1.8750   145.3260 na         1 YNA       0.043000
     24 N19        -10.4140     3.8690   147.4310 n1         1 YNA      -0.460000
     25 N27         -4.5850    -0.2970   148.9140 n          1 YNA      -0.332300
     26 N30         -4.1740    -2.1140   147.4770 nd         1 YNA      -0.637100
     27 O01         -2.7030    -1.6310   144.2730 o          1 YNA      -0.535100
     28 O21         -9.2740     4.6010   144.1020 oh         1 YNA      -0.527100
     29 CL06        -1.6960    -6.6570   143.1980 cl         1 YNA      -0.195000
     30 H282        -3.7550    -0.4140   150.8190 h1         1 YNA       0.055033
     31 H283        -3.7870     1.2170   150.1380 h1         1 YNA       0.055033
     32 H281        -5.2790     0.4770   150.7400 h1         1 YNA       0.055033
     33 H291        -3.4590    -1.9660   149.3900 h5         1 YNA       0.049800
     34 H231        -6.1630     1.5250   143.2420 ha         1 YNA       0.119000
     35 H221        -7.5280     3.4580   142.6250 ha         1 YNA       0.134000
     36 H161        -8.0800     1.3610   147.0630 ha         1 YNA       0.137000
     37 H131        -6.2530    -1.0820   143.6650 h4         1 YNA       0.154000
     38 H112        -5.2040    -3.3670   143.8920 h1         1 YNA       0.089700
     39 H111        -4.5760    -3.8530   145.4570 h1         1 YNA       0.089700
     40 H071         0.9130    -6.3480   142.2140 h4         1 YNA       0.034100
     41 H091         1.5370    -2.2900   142.3940 h4         1 YNA       0.027100
     42 H101        -0.6870    -1.8800   143.3020 ha         1 YNA       0.160000
     43 H1          -3.0430    -4.7300   143.8850 hn         1 YNA       0.166000
     44 H211        -9.8830     4.9180   144.7800 ho         1 YNA       0.481000
     45 O31         -5.7890     1.5480   148.3480 o          1 YNA      -0.533000
     46 C11         -4.5910    -3.0360   144.7330 c3         1 YNA      -0.009400
@<TRIPOS>BOND
     1     1    25 1   
     2     1    30 1   
     3     1    31 1   
     4     1    32 1   
     5     2    25 1   
     6     2    26 2   
     7     2    33 1   
     8     3    20 1   
     9     3    25 1   
    10     3    45 2   
    11     4     5 ar  
    12     4     7 ar  
    13     4    34 1   
    14     5    18 ar  
    15     5    35 1   
    16     6     7 1   
    17     6     9 2   
    18     6    20 1   
    19     7     8 ar  
    20     8    16 ar  
    21     8    36 1   
    22     9    23 1   
    23     9    37 1   
    24    10    21 1   
    25    10    27 2   
    26    10    46 1   
    27    11    12 ar  
    28    11    15 ar  
    29    11    21 1   
    30    12    13 ar  
    31    12    29 1   
    32    13    22 ar  
    33    13    40 1   
    34    14    15 ar  
    35    14    22 ar  
    36    14    41 1   
    37    15    42 1   
    38    16    17 1   
    39    16    18 ar  
    40    17    24 3   
    41    18    28 1   
    42    19    20 2   
    43    19    23 1   
    44    19    26 1   
    45    21    43 1   
    46    23    46 1   
    47    28    44 1   
    48    38    46 1   
    49    39    46 1   
@<TRIPOS>SUBSTRUCTURE
     1 YNA         1 TEMP              0 ****  ****    0 ROOT
