@<TRIPOS>MOLECULE
YNA
   46    49     1     0     0
SMALL
No Charge or Current Charge


@<TRIPOS>ATOM
      1 C28         -4.3520    -0.9970   149.8250 c3         1 YNA       0.079300
      2 C29         -4.2860    -2.4500   147.8050 cc         1 YNA       0.517800
      3 C26         -5.2440    -0.2260   147.6540 c          1 YNA       0.600600
      4 C23         -6.8670     2.1590   143.9790 ca         1 YNA      -0.041000
      5 C22         -7.6100     3.3500   143.9260 ca         1 YNA      -0.161000
      6 C14         -6.0720     0.1240   145.1900 cc         1 YNA      -0.022000
      7 C15         -6.8480     1.3730   145.1520 ca         1 YNA      -0.053000
      8 C16         -7.6260     1.7920   146.2520 ca         1 YNA       0.006000
      9 C13         -6.0140    -0.6460   144.0480 cd         1 YNA      -0.166000
     10 C02         -3.6500    -2.9090   142.9670 c          1 YNA       0.594100
     11 C04         -1.2690    -3.3690   143.8170 ca         1 YNA       0.031000
     12 C05         -0.5540    -3.9410   144.8900 ca         1 YNA      -0.007000
     13 C07          0.8530    -4.0080   144.8220 ca         1 YNA       0.374900
     14 C09          0.8850    -2.9930   142.7430 ca         1 YNA       0.361900
     15 C10         -0.5160    -2.8850   142.7260 ca         1 YNA      -0.187000
     16 C17         -8.3760     2.9850   146.2030 ca         1 YNA      -0.124000
     17 C18         -9.1520     3.3630   147.3500 cg         1 YNA       0.324000
     18 C20         -8.3610     3.7720   145.0320 ca         1 YNA       0.191100
     19 C24         -5.0750    -1.8070   145.7560 cd         1 YNA       0.129400
     20 C25         -5.4860    -0.6140   146.2600 cc         1 YNA      -0.250600
     21 N03         -2.6880    -3.2970   143.8900 ns         1 YNA      -0.147000
     22 N08          1.5700    -3.5450   143.7690 nb         1 YNA      -0.671000
     23 N12         -5.3780    -1.8430   144.3970 na         1 YNA       0.043000
     24 N19         -9.7890     3.6840   148.2730 n1         1 YNA      -0.460000
     25 N27         -4.6390    -1.2420   148.3940 n          1 YNA      -0.332300
     26 N30         -4.4560    -2.7810   146.5210 nd         1 YNA      -0.637100
     27 O01         -3.3970    -2.5550   141.8210 o          1 YNA      -0.535100
     28 O21         -9.0690     4.9380   144.9310 oh         1 YNA      -0.527100
     29 Cl06        -1.3920    -4.5790   146.3090 cl         1 YNA      -0.195000
     30 H282        -3.9230    -1.8910   150.2940 h1         1 YNA       0.055033
     31 H283        -3.6390    -0.1690   149.9230 h1         1 YNA       0.055033
     32 H281        -5.2800    -0.7360   150.3500 h1         1 YNA       0.055033
     33 H291        -3.8170    -3.1550   148.4790 h5         1 YNA       0.049800
     34 H231        -6.2830     1.8660   143.1100 ha         1 YNA       0.119000
     35 H221        -7.6020     3.9510   143.0200 ha         1 YNA       0.134000
     36 H161        -7.6920     1.1660   147.1370 ha         1 YNA       0.137000
     37 H131        -6.3980    -0.4640   143.0520 h4         1 YNA       0.154000
     38 H112        -5.7670    -2.9220   142.6320 h1         1 YNA       0.089700
     39 H111        -5.2340    -3.9060   144.0160 h1         1 YNA       0.089700
     40 H071         1.4240    -4.4490   145.6380 h4         1 YNA       0.034100
     41 H091         1.4780    -2.6220   141.9080 h4         1 YNA       0.027100
     42 H101        -0.9790    -2.4180   141.8640 ha         1 YNA       0.160000
     43 H1          -3.0640    -3.5590   144.7940 hn         1 YNA       0.166000
     44 H211        -9.5390     5.1010   145.7760 ho         1 YNA       0.481000
     45 O31         -5.5000     0.8690   148.1340 o          1 YNA      -0.533000
     46 C11         -5.0840    -2.9580   143.4880 c3         1 YNA      -0.009400
@<TRIPOS>BOND
     1     1    25 1   
     2     1    30 1   
     3     1    31 1   
     4     1    32 1   
     5     2    25 1   
     6     2    26 2   
     7     2    33 1   
     8     3    20 1   
     9     3    25 1   
    10     3    45 2   
    11     4     5 ar  
    12     4     7 ar  
    13     4    34 1   
    14     5    18 ar  
    15     5    35 1   
    16     6     7 1   
    17     6     9 2   
    18     6    20 1   
    19     7     8 ar  
    20     8    16 ar  
    21     8    36 1   
    22     9    23 1   
    23     9    37 1   
    24    10    21 1   
    25    10    27 2   
    26    10    46 1   
    27    11    12 ar  
    28    11    15 ar  
    29    11    21 1   
    30    12    13 ar  
    31    12    29 1   
    32    13    22 ar  
    33    13    40 1   
    34    14    15 ar  
    35    14    22 ar  
    36    14    41 1   
    37    15    42 1   
    38    16    17 1   
    39    16    18 ar  
    40    17    24 3   
    41    18    28 1   
    42    19    20 2   
    43    19    23 1   
    44    19    26 1   
    45    21    43 1   
    46    23    46 1   
    47    28    44 1   
    48    38    46 1   
    49    39    46 1   
@<TRIPOS>SUBSTRUCTURE
     1 YNA         1 TEMP              0 ****  ****    0 ROOT
