@<TRIPOS>MOLECULE
YND
   34    36     1     0     0
SMALL
No Charge or Current Charge


@<TRIPOS>ATOM
      1 C1         -19.8040    -2.4920    17.1330 c3         1 YND       0.080300
      2 N          -18.4790    -3.4850    11.7920 na         1 YND       0.037000
      3 CA         -18.4450    -2.6540    10.5820 c3         1 YND      -0.010400
      4 C          -19.8260    -2.5100     9.9460 c          1 YND       0.592100
      5 O          -20.1280    -3.1200     8.9270 o          1 YND      -0.531100
      6 CAD        -24.1710    -1.4030     9.2290 ca         1 YND       0.361900
      7 CAE        -22.8480    -1.8480     9.3920 ca         1 YND      -0.188000
      8 CAF        -18.3600    -5.2280    13.1710 cc         1 YND      -0.092000
      9 CAG        -18.1790    -4.8560    11.8600 cd         1 YND      -0.186000
     10 CAH        -19.5030    -1.6910    14.7900 cc         1 YND       0.514800
     11 CAI        -23.9300     0.1590    10.9180 ca         1 YND       0.374900
     12 CAP        -22.5940    -0.2230    11.1520 ca         1 YND      -0.008000
     13 CAQ        -22.0250    -1.2510    10.3720 ca         1 YND       0.032000
     14 CAR        -19.0790    -4.0170    15.3330 c          1 YND       0.602600
     15 CAS        -18.7680    -4.0980    13.9120 cc         1 YND      -0.263600
     16 CAT        -18.8350    -3.0420    13.0680 cd         1 YND       0.130400
     17 NAK        -24.7140    -0.4150     9.9730 nb         1 YND      -0.672000
     18 NAL        -19.2130    -1.7770    13.4840 nd         1 YND      -0.632100
     19 NAM        -20.6780    -1.6400    10.6130 ns         1 YND      -0.150000
     20 NAN        -19.4550    -2.7310    15.7160 n          1 YND      -0.335300
     21 OAB        -19.0200    -4.9660    16.1040 o          1 YND      -0.535000
     22 H1         -20.0800    -1.4420    17.2930 h1         1 YND       0.053367
     23 H2         -20.6530    -3.1270    17.4180 h1         1 YND       0.053367
     24 H3         -18.9450    -2.7330    17.7720 h1         1 YND       0.053367
     25 HA2        -17.7690    -3.1060     9.8470 h1         1 YND       0.088700
     26 HA1        -18.0700    -1.6570    10.8370 h1         1 YND       0.088700
     27 HAD        -24.8170    -1.8550     8.4770 h4         1 YND       0.027100
     28 HAE        -22.5000    -2.6530     8.7560 ha         1 YND       0.161000
     29 HAF        -18.2180    -6.2240    13.5830 ha         1 YND       0.151000
     30 HAG        -17.8740    -5.4380    10.9980 h4         1 YND       0.150000
     31 HAH        -19.8100    -0.7390    15.2050 h5         1 YND       0.047800
     32 HAI        -24.3880     0.9530    11.5070 h4         1 YND       0.034100
     33 HNA        -20.2740    -1.2160    11.4400 hn         1 YND       0.165000
     34 ClAC       -21.6570     0.5940    12.4080 cl         1 YND      -0.196000
@<TRIPOS>BOND
     1     1    20 1   
     2     1    22 1   
     3     1    23 1   
     4     1    24 1   
     5     2     3 1   
     6     2     9 1   
     7     2    16 1   
     8     3     4 1   
     9     3    25 1   
    10     3    26 1   
    11     4     5 2   
    12     4    19 1   
    13     6     7 ar  
    14     6    17 ar  
    15     6    27 1   
    16     7    13 ar  
    17     7    28 1   
    18     8     9 2   
    19     8    15 1   
    20     8    29 1   
    21     9    30 1   
    22    10    18 2   
    23    10    20 1   
    24    10    31 1   
    25    11    12 ar  
    26    11    17 ar  
    27    11    32 1   
    28    12    13 ar  
    29    12    34 1   
    30    13    19 1   
    31    14    15 1   
    32    14    20 1   
    33    14    21 2   
    34    15    16 2   
    35    16    18 1   
    36    19    33 1   
@<TRIPOS>SUBSTRUCTURE
     1 YND         1 TEMP              0 ****  ****    0 ROOT
