@<TRIPOS>MOLECULE
YND
   34    36     1     0     0
SMALL
bcc


@<TRIPOS>ATOM
      1 C1         -19.1170    -4.0680    17.7640 c3         1 YND       0.080300
      2 N          -18.8150    -2.9050    12.4700 na         1 YND      -0.035100
      3 CA         -19.2260    -1.7570    11.7230 c3         1 YND      -0.039700
      4 C          -20.6560    -1.9050    11.2150 c          1 YND       0.659100
      5 O          -21.3940    -2.7790    11.6020 o          1 YND      -0.531100
      6 CAD        -24.4360    -1.3120     9.0330 ca         1 YND       0.427200
      7 CAE        -23.3010    -1.5900     9.7730 ca         1 YND      -0.271300
      8 CAF        -18.0750    -4.9680    12.9270 cc         1 YND      -0.110000
      9 CAG        -18.2880    -4.0590    11.9330 cd         1 YND      -0.153300
     10 CAH        -19.4720    -2.5570    15.8900 cc         1 YND       0.514800
     11 CAI        -23.4910     0.4810     8.0350 ca         1 YND       0.440200
     12 CAP        -22.3090     0.2930     8.7270 ca         1 YND      -0.164900
     13 CAQ        -22.1800    -0.7700     9.6310 ca         1 YND       0.124600
     14 CAR        -18.5300    -4.7630    15.4960 c          1 YND       0.745100
     15 CAS        -18.5030    -4.3480    14.1320 cc         1 YND      -0.263600
     16 CAT        -18.9620    -3.0800    13.8050 cd         1 YND       0.181100
     17 NAK        -24.5480    -0.3040     8.1780 nb         1 YND      -0.672000
     18 NAL        -19.4570    -2.1630    14.6610 nd         1 YND      -0.632100
     19 NAM        -20.9850    -0.9450    10.3020 ns         1 YND      -0.476100
     20 NAN        -19.0460    -3.7660    16.3420 n          1 YND      -0.402300
     21 OAB        -18.1650    -5.8350    15.9500 o          1 YND      -0.610500
     22 H1         -19.5170    -3.2070    18.2900 h1         1 YND       0.053367
     23 H2         -19.7670    -4.9210    17.9440 h1         1 YND       0.053367
     24 H3         -18.1270    -4.2890    18.1580 h1         1 YND       0.053367
     25 HA2        -18.5380    -1.6050    10.8890 h1         1 YND       0.088700
     26 HA1        -19.1640    -0.8670    12.3530 h1         1 YND       0.088700
     27 HAD        -25.3040    -1.9520     9.1460 h4         1 YND       0.027100
     28 HAE        -23.3000    -2.4340    10.4420 ha         1 YND       0.179000
     29 HAF        -17.6590    -5.9550    12.8070 ha         1 YND       0.169000
     30 HAG        -18.0970    -4.1270    10.8740 h4         1 YND       0.168000
     31 HAH        -19.8520    -1.8860    16.6510 h5         1 YND       0.047800
     32 HAI        -23.5730     1.3070     7.3370 h4         1 YND       0.034100
     33 HNA        -20.2570    -0.2800    10.0770 hn         1 YND       0.331500
     34 CLAC       -20.9990     1.3870     8.4500 cl         1 YND      -0.104400
@<TRIPOS>BOND
     1     1    20 1   
     2     1    22 1   
     3     1    23 1   
     4     1    24 1   
     5     2     3 1   
     6     2     9 1   
     7     2    16 1   
     8     3     4 1   
     9     3    25 1   
    10     3    26 1   
    11     4     5 2   
    12     4    19 1   
    13     6     7 ar  
    14     6    17 ar  
    15     6    27 1   
    16     7    13 ar  
    17     7    28 1   
    18     8     9 2   
    19     8    15 1   
    20     8    29 1   
    21     9    30 1   
    22    10    18 2   
    23    10    20 1   
    24    10    31 1   
    25    11    12 ar  
    26    11    17 ar  
    27    11    32 1   
    28    12    13 ar  
    29    12    34 1   
    30    13    19 1   
    31    14    15 1   
    32    14    20 1   
    33    14    21 2   
    34    15    16 2   
    35    16    18 1   
    36    19    33 1   
@<TRIPOS>SUBSTRUCTURE
     1 YND         1 TEMP              0 ****  ****    0 ROOT
