@<TRIPOS>MOLECULE
YNE
   55    59     1     0     0
SMALL
No Charge or Current Charge


@<TRIPOS>ATOM
      1 C4          -4.3540     2.1500    -1.4000 c3         1 YNE      -0.032800
      2 C3          -4.8900     1.1980    -0.3590 cc         1 YNE      -0.109300
      3 N1          -5.7460     1.5410     0.6860 na         1 YNE       0.132800
      4 C2          -6.2910     2.8790     0.9660 c3         1 YNE       0.071900
      5 N           -6.0720     0.4810     1.5050 nc         1 YNE      -0.521800
      6 C5          -4.6820    -0.1440    -0.1920 cd         1 YNE      -0.228300
      7 C1          -5.4170    -0.5220     0.9570 cd         1 YNE       0.282300
      8 C           -5.4930    -1.8990     1.5570 c3         1 YNE      -0.125400
      9 C6          -3.8210    -1.0570    -1.0400 c3         1 YNE      -0.008400
     10 C7          -2.3960    -1.1470    -0.5650 cc         1 YNE       0.427300
     11 O           -1.5910    -0.0620    -0.6710 os         1 YNE      -0.291000
     12 C8          -0.4310    -0.5130    -0.1300 cc         1 YNE       0.504800
     13 N3          -0.5200    -1.7740     0.2710 nd         1 YNE      -0.330000
     14 N2          -1.7980    -2.1870    -0.0110 nd         1 YNE      -0.366000
     15 C9           0.6770     0.3950    -0.0670 cc         1 YNE      -0.161200
     16 S            0.6110     2.0760    -0.6580 ss         1 YNE       0.109400
     17 C21          2.3100     2.3120    -0.1260 ca         1 YNE      -0.150000
     18 C20          3.0270     3.5130    -0.2350 ca         1 YNE      -0.088000
     19 C19          4.3480     3.5640     0.2550 ca         1 YNE      -0.088000
     20 C18          4.9270     2.4250     0.8550 ca         1 YNE      -0.119000
     21 C17          4.1950     1.2260     0.9600 ca         1 YNE      -0.054000
     22 C16          2.8880     1.1900     0.4410 ca         1 YNE      -0.111800
     23 C10          1.9280     0.1050     0.4310 cd         1 YNE       0.186900
     24 O1           2.2650    -1.1290     0.9160 os         1 YNE      -0.331100
     25 C11          3.2740    -1.9180     0.2510 c6         1 YNE       0.180300
     26 C15          3.6020    -3.1650     1.1030 c6         1 YNE      -0.090900
     27 C14          4.6260    -4.0690     0.3800 c6         1 YNE       0.160800
     28 N4           4.1440    -4.4450    -0.9690 n7         1 YNE      -0.859400
     29 C13          3.8500    -3.2720    -1.8260 c6         1 YNE       0.160800
     30 C12          2.8060    -2.3470    -1.1620 c6         1 YNE      -0.090900
     31 H41C        -4.0260     3.0900    -0.9420 hc         1 YNE       0.052033
     32 H42C        -3.4940     1.7240    -1.9280 hc         1 YNE       0.052033
     33 H43C        -5.1240     2.3850    -2.1440 hc         1 YNE       0.052033
     34 H21C        -6.7510     3.2840     0.0570 h1         1 YNE       0.055700
     35 H22C        -7.0490     2.8210     1.7570 h1         1 YNE       0.055700
     36 H23C        -5.4800     3.5420     1.2900 h1         1 YNE       0.055700
     37 H61C        -4.2530    -2.0640    -1.0650 hc         1 YNE       0.075700
     38 H62C        -3.8230    -0.7150    -2.0810 hc         1 YNE       0.075700
     39 HC1         -6.0020    -2.5910     0.8770 hc         1 YNE       0.052033
     40 HC2         -4.4890    -2.2950     1.7520 hc         1 YNE       0.052033
     41 HC3         -6.0410    -1.8980     2.5070 hc         1 YNE       0.052033
     42 H20          2.5710     4.3930    -0.6840 ha         1 YNE       0.123000
     43 H19          4.9180     4.4870     0.1810 ha         1 YNE       0.116000
     44 H18          5.9410     2.4750     1.2460 ha         1 YNE       0.118000
     45 H17          4.6350     0.3600     1.4480 ha         1 YNE       0.125000
     46 H11          4.1900    -1.3220     0.1450 h1         1 YNE       0.035700
     47 H151         4.0030    -2.8570     2.0780 hc         1 YNE       0.065700
     48 H152         2.6840    -3.7330     1.3020 hc         1 YNE       0.065700
     49 H121         1.8430    -2.8700    -1.0950 hc         1 YNE       0.065700
     50 H122         2.6470    -1.4640    -1.7940 hc         1 YNE       0.065700
     51 H141         5.5860    -3.5390     0.2920 h1         1 YNE       0.029950
     52 H142         4.8000    -4.9780     0.9740 h1         1 YNE       0.029950
     53 H4           4.8610    -5.0220    -1.4300 hn         1 YNE       0.412000
     54 H131         4.7780    -2.7090    -2.0060 h1         1 YNE       0.029950
     55 H132         3.4730    -3.6150    -2.8010 h1         1 YNE       0.029950
@<TRIPOS>BOND
     1     1     2 1   
     2     1    31 1   
     3     1    32 1   
     4     1    33 1   
     5     2     3 1   
     6     2     6 2   
     7     3     4 1   
     8     3     5 1   
     9     4    34 1   
    10     4    35 1   
    11     4    36 1   
    12     5     7 2   
    13     6     7 1   
    14     6     9 1   
    15     7     8 1   
    16     8    39 1   
    17     8    40 1   
    18     8    41 1   
    19     9    10 1   
    20     9    37 1   
    21     9    38 1   
    22    10    11 1   
    23    10    14 2   
    24    11    12 1   
    25    12    13 2   
    26    12    15 1   
    27    13    14 1   
    28    15    16 1   
    29    15    23 2   
    30    16    17 1   
    31    17    18 ar  
    32    17    22 ar  
    33    18    19 ar  
    34    18    42 1   
    35    19    20 ar  
    36    19    43 1   
    37    20    21 ar  
    38    20    44 1   
    39    21    22 ar  
    40    21    45 1   
    41    22    23 1   
    42    23    24 1   
    43    24    25 1   
    44    25    26 1   
    45    25    30 1   
    46    25    46 1   
    47    26    27 1   
    48    26    47 1   
    49    26    48 1   
    50    27    28 1   
    51    27    51 1   
    52    27    52 1   
    53    28    29 1   
    54    28    53 1   
    55    29    30 1   
    56    29    54 1   
    57    29    55 1   
    58    30    49 1   
    59    30    50 1   
@<TRIPOS>SUBSTRUCTURE
     1 YNE         1 TEMP              0 ****  ****    0 ROOT
