@<TRIPOS>MOLECULE
YNE
   55    59     1     0     0
SMALL
abcg2


@<TRIPOS>ATOM
      1 C4          -4.0390     2.1270    -1.4620 c3         1 YNE      -0.032800
      2 C3          -4.6620     1.2240    -0.4600 cc         1 YNE      -0.109300
      3 N1          -5.4560     1.6610     0.5380 na         1 YNE       0.132800
      4 C2          -5.8940     3.0120     0.7820 c3         1 YNE       0.071900
      5 N           -5.8990     0.6680     1.3150 nc         1 YNE      -0.521800
      6 C5          -4.5830    -0.1460    -0.3100 cd         1 YNE      -0.228300
      7 C1          -5.3740    -0.4360     0.8200 cd         1 YNE       0.282300
      8 C           -5.6220    -1.7710     1.4320 c3         1 YNE      -0.125400
      9 C6          -3.7800    -1.1170    -1.1150 c3         1 YNE      -0.008400
     10 C7          -2.4170    -1.2810    -0.5550 cc         1 YNE       0.427300
     11 O           -1.5770    -0.2310    -0.5800 os         1 YNE      -0.291000
     12 C8          -0.4700    -0.6950     0.0270 cc         1 YNE       0.504800
     13 N3          -0.6130    -1.9210     0.4000 nd         1 YNE      -0.330000
     14 N2          -1.8760    -2.2960     0.0160 nd         1 YNE      -0.366000
     15 C9           0.6350     0.2120     0.1600 cc         1 YNE      -0.161200
     16 S            0.4040     1.8930    -0.2390 ss         1 YNE       0.109400
     17 C21          2.0420     2.2520     0.1920 ca         1 YNE      -0.150000
     18 C20          2.6520     3.5030     0.1530 ca         1 YNE      -0.088000
     19 C19          3.9650     3.5990     0.5700 ca         1 YNE      -0.088000
     20 C18          4.6630     2.4720     1.0260 ca         1 YNE      -0.119000
     21 C17          4.0570     1.2350     1.0630 ca         1 YNE      -0.054000
     22 C16          2.7310     1.1140     0.6310 ca         1 YNE      -0.111800
     23 C10          1.8980    -0.0570     0.6010 cd         1 YNE       0.186900
     24 O1           2.3180    -1.2630     1.0020 os         1 YNE      -0.331100
     25 C11          3.2150    -1.9600     0.1110 c6         1 YNE       0.180300
     26 C15          4.0850    -2.8760     0.9490 c6         1 YNE      -0.090900
     27 C14          4.9980    -3.6850     0.0350 c6         1 YNE       0.160800
     28 N4           4.2040    -4.4360    -0.9200 n7         1 YNE      -0.859400
     29 C13          3.4270    -3.5600    -1.7780 c6         1 YNE       0.160800
     30 C12          2.4480    -2.7480    -0.9380 c6         1 YNE      -0.090900
     31 H41C        -3.3460     2.8300    -0.9960 hc         1 YNE       0.052033
     32 H42C        -3.4750     1.5500    -2.1920 hc         1 YNE       0.052033
     33 H43C        -4.7830     2.7090    -2.0060 hc         1 YNE       0.052033
     34 H21C        -6.8520     3.2140     0.3030 h1         1 YNE       0.055700
     35 H22C        -5.9950     3.1660     1.8530 h1         1 YNE       0.055700
     36 H23C        -5.1570     3.7140     0.4000 h1         1 YNE       0.055700
     37 H61C        -4.2530    -2.0990    -1.1270 hc         1 YNE       0.075700
     38 H62C        -3.7020    -0.7980    -2.1580 hc         1 YNE       0.075700
     39 HC1         -6.1100    -2.4480     0.7290 hc         1 YNE       0.052033
     40 HC2         -4.6890    -2.2480     1.7390 hc         1 YNE       0.052033
     41 HC3         -6.2600    -1.6840     2.3100 hc         1 YNE       0.052033
     42 H20          2.1120     4.3780    -0.1870 ha         1 YNE       0.123000
     43 H19          4.4580     4.5610     0.5530 ha         1 YNE       0.116000
     44 H18          5.6870     2.5800     1.3590 ha         1 YNE       0.118000
     45 H17          4.5970     0.3700     1.4290 ha         1 YNE       0.125000
     46 H11          3.8570    -1.2290    -0.3980 h1         1 YNE       0.035700
     47 H151         4.6870    -2.2960     1.6530 hc         1 YNE       0.065700
     48 H152         3.4530    -3.5550     1.5280 hc         1 YNE       0.065700
     49 H121         1.7400    -3.4170    -0.4430 hc         1 YNE       0.065700
     50 H122         1.8770    -2.0770    -1.5830 hc         1 YNE       0.065700
     51 H141         5.7100    -2.9990    -0.4540 h1         1 YNE       0.029950
     52 H142         5.5910    -4.3800     0.6320 h1         1 YNE       0.029950
     53 H4           4.8130    -5.0110    -1.4870 hn         1 YNE       0.412000
     54 H131         4.0590    -2.8660    -2.3580 h1         1 YNE       0.029950
     55 H132         2.8770    -4.1640    -2.5010 h1         1 YNE       0.029950
@<TRIPOS>BOND
     1     1     2 1   
     2     1    31 1   
     3     1    32 1   
     4     1    33 1   
     5     2     3 1   
     6     2     6 2   
     7     3     4 1   
     8     3     5 1   
     9     4    34 1   
    10     4    35 1   
    11     4    36 1   
    12     5     7 2   
    13     6     7 1   
    14     6     9 1   
    15     7     8 1   
    16     8    39 1   
    17     8    40 1   
    18     8    41 1   
    19     9    10 1   
    20     9    37 1   
    21     9    38 1   
    22    10    11 1   
    23    10    14 2   
    24    11    12 1   
    25    12    13 2   
    26    12    15 1   
    27    13    14 1   
    28    15    16 1   
    29    15    23 2   
    30    16    17 1   
    31    17    18 ar  
    32    17    22 ar  
    33    18    19 ar  
    34    18    42 1   
    35    19    20 ar  
    36    19    43 1   
    37    20    21 ar  
    38    20    44 1   
    39    21    22 ar  
    40    21    45 1   
    41    22    23 1   
    42    23    24 1   
    43    24    25 1   
    44    25    26 1   
    45    25    30 1   
    46    25    46 1   
    47    26    27 1   
    48    26    47 1   
    49    26    48 1   
    50    27    28 1   
    51    27    51 1   
    52    27    52 1   
    53    28    29 1   
    54    28    53 1   
    55    29    30 1   
    56    29    54 1   
    57    29    55 1   
    58    30    49 1   
    59    30    50 1   
@<TRIPOS>SUBSTRUCTURE
     1 YNE         1 TEMP              0 ****  ****    0 ROOT
