@<TRIPOS>MOLECULE
YNG
  100   110     1     0     0
SMALL
No Charge or Current Charge


@<TRIPOS>ATOM
      1 C10        -34.5440    -7.7440    20.2100 ca         1 YNG      -0.151300
      2 N12        -34.6210    -5.7790    19.0560 n          1 YNG      -0.209400
      3 C14        -35.0290    -3.8120    17.4820 cc         1 YNG      -0.118300
      4 C18        -35.7190    -2.1990    15.9720 ca         1 YNG      -0.022200
      5 C21        -34.3270     0.3040    13.5610 c3         1 YNG       0.141900
      6 C24        -38.2130    -1.3090    15.1330 ca         1 YNG      -0.155000
      7 C26        -39.4480    -2.8290    16.5650 c5         1 YNG      -0.045100
      8 C11        -33.9130    -6.5250    20.0330 ca         1 YNG      -0.008000
      9 C13        -34.1160    -4.6590    18.3280 c          1 YNG       0.654300
     10 C02        -34.4600    -9.9550    21.5890 cc         1 YNG      -0.155400
     11 C03        -33.5170   -10.3870    22.5140 cd         1 YNG      -0.143100
     12 C05        -32.8580    -8.3580    21.8280 ca         1 YNG      -0.140200
     13 C06        -32.1800    -7.1330    21.6260 ca         1 YNG       0.151100
     14 C08        -32.7170    -6.2040    20.7130 ca         1 YNG      -0.130000
     15 C09        -34.0140    -8.6550    21.1440 ca         1 YNG      -0.014800
     16 C16        -36.4270    -3.7340    17.4390 cd         1 YNG      -0.197200
     17 C17        -36.8540    -2.7410    16.4890 ca         1 YNG      -0.106800
     18 C19        -35.7450    -1.1850    14.9970 ca         1 YNG       0.037100
     19 C22        -37.0380    -0.7300    14.5500 ca         1 YNG       0.179100
     20 C25        -38.1150    -2.3110    16.0860 ca         1 YNG      -0.041300
     21 C27        -40.4510    -1.8150    15.8930 c5         1 YNG       0.098000
     22 C30        -41.6780    -0.0890    13.7340 cc         1 YNG      -0.143300
     23 C31        -42.6520    -0.0820    14.7410 cd         1 YNG      -0.180200
     24 C32        -43.9200     0.3600    14.2220 ca         1 YNG      -0.120800
     25 C33        -43.7150     0.6410    12.9090 ca         1 YNG      -0.012200
     26 C34        -44.7410     1.1100    12.0680 ca         1 YNG       0.021100
     27 C37        -46.0460     1.2880    12.6530 ca         1 YNG       0.185100
     28 C38        -46.2260     0.9840    14.0440 ca         1 YNG      -0.132000
     29 C39        -45.1680     0.5260    14.8160 ca         1 YNG      -0.048300
     30 C40        -45.5230     0.2540    16.2600 c5         1 YNG      -0.038100
     31 C41        -47.0540     0.6230    16.3080 c5         1 YNG       0.096000
     32 C50        -35.9300    -6.4130    18.7590 c5         1 YNG       0.101000
     33 C51        -35.7350    -7.9000    19.2760 c5         1 YNG      -0.032400
     34 C52        -35.4310    -8.8930    18.1250 c3         1 YNG       0.060600
     35 C54        -37.6380    -9.9890    17.5200 cc         1 YNG       0.586400
     36 C56        -38.7600    -9.6080    15.5100 cd         1 YNG       0.736900
     37 C58        -37.7260    -8.7810    15.1300 cc         1 YNG      -0.111600
     38 C59        -36.6650    -8.5530    15.9380 cc         1 YNG      -0.096000
     39 C61        -36.3510    -7.4590    14.1870 cd         1 YNG       0.537200
     40 N04        -32.5120    -9.4070    22.6730 na         1 YNG      -0.225700
     41 N15        -34.6250    -2.8120    16.5620 na         1 YNG      -0.171700
     42 N28        -39.6170    -1.0880    14.8930 n          1 YNG      -0.185400
     43 N42        -47.3730     1.0530    14.9120 n          1 YNG      -0.226400
     44 N44        -49.6090     1.4400    15.5930 nt         1 YNG      -0.591000
     45 N47        -42.3870     0.3930    12.6040 na         1 YNG      -0.176700
     46 N53        -36.5560    -9.1260    17.1920 na         1 YNG      -0.152500
     47 N55        -38.7120   -10.2390    16.7250 nd         1 YNG      -0.815000
     48 N60        -35.7650    -7.7500    15.4370 nd         1 YNG      -0.440300
     49 N62        -37.5370    -8.0750    13.9790 nc         1 YNG      -0.587100
     50 O07        -31.0300    -6.8280    22.2950 oh         1 YNG      -0.527100
     51 O20        -34.5080    -0.7230    14.5520 os         1 YNG      -0.339100
     52 O23        -37.1620     0.2550    13.6170 oh         1 YNG      -0.556100
     53 O35        -44.3880     1.3570    10.7430 os         1 YNG      -0.336100
     54 O45        -49.0490     1.8260    13.4940 o          1 YNG      -0.666100
     55 O46        -47.0960     1.7370    11.9070 oh         1 YNG      -0.560100
     56 O49        -32.9200    -4.3860    18.3560 o          1 YNG      -0.588100
     57 H212       -33.2570     0.4780    13.3920 h1         1 YNG       0.036033
     58 H211       -34.7730     0.0070    12.6030 h1         1 YNG       0.036033
     59 H213       -34.7720     1.2510    13.8900 h1         1 YNG       0.036033
     60 H262       -39.5370    -2.8300    17.6570 hc         1 YNG       0.066200
     61 H261       -39.6240    -3.8530    16.2180 hc         1 YNG       0.066200
     62 H013       -35.6220   -11.1760    20.2350 hc         1 YNG       0.034033
     63 H011       -35.9310   -11.4860    21.9440 hc         1 YNG       0.034033
     64 H012       -36.5860   -10.0290    21.1990 hc         1 YNG       0.034033
     65 H031       -33.5010   -11.3120    23.0840 h4         1 YNG       0.213000
     66 H081       -32.2140    -5.2540    20.5630 ha         1 YNG       0.159000
     67 H161       -37.1270    -4.2740    18.0640 ha         1 YNG       0.202000
     68 H271       -40.8130    -1.1200    16.6590 h1         1 YNG       0.060700
     69 H272       -41.3030    -2.3360    15.4350 h1         1 YNG       0.060700
     70 H311       -42.5070    -0.3010    15.7910 ha         1 YNG       0.205000
     71 H361       -44.7570     1.9500     8.7760 h1         1 YNG       0.035367
     72 H362       -46.1150     1.1370     9.5730 h1         1 YNG       0.035367
     73 H363       -45.6940     2.8230    10.0010 h1         1 YNG       0.035367
     74 H402       -45.3520    -0.7940    16.5330 hc         1 YNG       0.066200
     75 H401       -44.9380     0.8730    16.9490 hc         1 YNG       0.066200
     76 H411       -47.2380     1.4340    17.0250 h1         1 YNG       0.050700
     77 H412       -47.6570    -0.2470    16.6030 h1         1 YNG       0.050700
     78 H501       -36.7230    -5.9280    19.3410 h1         1 YNG       0.071200
     79 H502       -36.1910    -6.3730    17.6950 h1         1 YNG       0.071200
     80 H511       -36.6340    -8.2450    19.7970 hc         1 YNG       0.068700
     81 H521       -35.1320    -9.8570    18.5500 h1         1 YNG       0.087200
     82 H522       -34.5620    -8.5250    17.5670 h1         1 YNG       0.087200
     83 H541       -37.5740   -10.4670    18.4900 h5         1 YNG       0.046100
     84 H611       -35.8730    -6.7990    13.4720 h5         1 YNG       0.059800
     85 H041       -31.7100    -9.4720    23.2940 hn         1 YNG       0.348000
     86 H151       -33.6600    -2.5690    16.3590 hn         1 YNG       0.379000
     87 H441       -50.5540     1.7270    15.3890 hn         1 YNG       0.321000
     88 H442       -49.3520     1.1440    16.5200 hn         1 YNG       0.321000
     89 H471       -41.9770     0.5440    11.6870 hn         1 YNG       0.381000
     90 H572       -40.2800   -10.7860    15.0920 hn         1 YNG       0.514000
     91 H571       -39.7630    -9.7670    13.8090 hn         1 YNG       0.514000
     92 H071       -30.8030    -7.5750    22.8840 ho         1 YNG       0.457000
     93 H231       -38.0800     0.1710    13.2350 ho         1 YNG       0.513000
     94 H461       -47.8940     1.7850    12.5100 ho         1 YNG       0.524000
     95 C01        -35.7180   -10.6950    21.2140 c3         1 YNG      -0.010900
     96 C29        -40.2120    -0.4250    13.7710 c          1 YNG       0.638300
     97 N57        -39.8440    -9.9200    14.8060 nv         1 YNG      -1.040900
     98 C43        -48.6970     1.4610    14.6010 c          1 YNG       0.667100
     99 O48        -39.5280    -0.1360    12.7940 o          1 YNG      -0.634100
    100 C36        -45.2880     1.8400     9.7300 c3         1 YNG       0.142900
@<TRIPOS>BOND
     1     1     8 ar  
     2     1    15 ar  
     3     1    33 1   
     4     2     8 1   
     5     2     9 1   
     6     2    32 1   
     7     3     9 1   
     8     3    16 2   
     9     3    41 1   
    10     4    17 ar  
    11     4    18 ar  
    12     4    41 1   
    13     5    51 1   
    14     5    57 1   
    15     5    58 1   
    16     5    59 1   
    17     6    19 ar  
    18     6    20 ar  
    19     6    42 1   
    20     7    20 1   
    21     7    21 1   
    22     7    60 1   
    23     7    61 1   
    24     8    14 ar  
    25     9    56 2   
    26    10    11 2   
    27    10    15 1   
    28    10    95 1   
    29    11    40 1   
    30    11    65 1   
    31    12    13 ar  
    32    12    15 ar  
    33    12    40 1   
    34    13    14 ar  
    35    13    50 1   
    36    14    66 1   
    37    16    17 1   
    38    16    67 1   
    39    17    20 ar  
    40    18    19 ar  
    41    18    51 1   
    42    19    52 1   
    43    21    42 1   
    44    21    68 1   
    45    21    69 1   
    46    22    23 2   
    47    22    45 1   
    48    22    96 1   
    49    23    24 1   
    50    23    70 1   
    51    24    25 ar  
    52    24    29 ar  
    53    25    26 ar  
    54    25    45 1   
    55    26    27 ar  
    56    26    53 1   
    57    27    28 ar  
    58    27    55 1   
    59    28    29 ar  
    60    28    43 1   
    61    29    30 1   
    62    30    31 1   
    63    30    74 1   
    64    30    75 1   
    65    31    43 1   
    66    31    76 1   
    67    31    77 1   
    68    32    33 1   
    69    32    78 1   
    70    32    79 1   
    71    33    34 1   
    72    33    80 1   
    73    34    46 1   
    74    34    81 1   
    75    34    82 1   
    76    35    46 1   
    77    35    47 2   
    78    35    83 1   
    79    36    37 2   
    80    36    47 1   
    81    36    97 1   
    82    37    38 1   
    83    37    49 1   
    84    38    46 1   
    85    38    48 2   
    86    39    48 1   
    87    39    49 2   
    88    39    84 1   
    89    40    85 1   
    90    41    86 1   
    91    42    96 1   
    92    43    98 1   
    93    44    87 1   
    94    44    88 1   
    95    44    98 1   
    96    45    89 1   
    97    50    92 1   
    98    52    93 1   
    99    53   100 1   
   100    54    98 2   
   101    55    94 1   
   102    62    95 1   
   103    63    95 1   
   104    64    95 1   
   105    71   100 1   
   106    72   100 1   
   107    73   100 1   
   108    90    97 1   
   109    91    97 1   
   110    96    99 2   
@<TRIPOS>SUBSTRUCTURE
     1 YNG         1 TEMP              0 ****  ****    0 ROOT
