@<TRIPOS>MOLECULE
YNG
  100   110     1     0     0
SMALL
bcc


@<TRIPOS>ATOM
      1 C10        -34.5720    -8.0550    20.0470 ca         1 YNG      -0.151300
      2 N12        -34.9840    -5.9550    19.2530 n          1 YNG      -0.369000
      3 C14        -35.6240    -4.0940    17.8460 cc         1 YNG      -0.118300
      4 C18        -36.2870    -2.7060    16.2360 ca         1 YNG      -0.022200
      5 C21        -34.5720    -0.4140    14.7790 c3         1 YNG       0.118700
      6 C24        -38.7310    -1.7130    15.5080 ca         1 YNG      -0.062400
      7 C26        -39.9980    -2.6780    17.2510 c5         1 YNG      -0.045100
      8 C11        -34.1410    -6.7430    20.0710 ca         1 YNG       0.084600
      9 C13        -34.5970    -4.8300    18.6060 c          1 YNG       0.721300
     10 C02        -34.0780   -10.4020    21.0680 cc         1 YNG      -0.155400
     11 C03        -33.1050   -10.7520    21.9620 cd         1 YNG      -0.093100
     12 C05        -32.8090    -8.5740    21.6140 ca         1 YNG      -0.140200
     13 C06        -32.3750    -7.2410    21.6210 ca         1 YNG       0.151100
     14 C08        -33.0560    -6.3160    20.8450 ca         1 YNG      -0.148000
     15 C09        -33.9050    -9.0000    20.8280 ca         1 YNG      -0.014800
     16 C16        -36.9720    -3.9330    18.0260 cd         1 YNG      -0.147200
     17 C17        -37.4200    -3.0500    17.0030 ca         1 YNG      -0.106800
     18 C19        -36.3610    -1.8840    15.1090 ca         1 YNG       0.037100
     19 C22        -37.5950    -1.3580    14.7390 ca         1 YNG       0.179100
     20 C25        -38.6490    -2.5180    16.6250 ca         1 YNG      -0.041300
     21 C27        -40.7940    -1.5450    16.6020 c5         1 YNG       0.098000
     22 C30        -42.0230    -0.4980    14.1330 cc         1 YNG      -0.143300
     23 C31        -42.7540     0.2470    15.0260 cd         1 YNG      -0.130200
     24 C32        -43.9680     0.5920    14.3750 ca         1 YNG      -0.120800
     25 C33        -43.9230     0.0180    13.0900 ca         1 YNG      -0.012200
     26 C34        -44.9610     0.1720    12.1710 ca         1 YNG       0.021100
     27 C37        -46.0760     0.9320    12.5180 ca         1 YNG       0.185100
     28 C38        -46.1230     1.5030    13.8210 ca         1 YNG      -0.039400
     29 C39        -45.0900     1.3430    14.7200 ca         1 YNG      -0.048300
     30 C40        -45.3720     2.0660    15.9970 c5         1 YNG      -0.038100
     31 C41        -46.5720     2.9420    15.6330 c5         1 YNG       0.096000
     32 C50        -36.1810    -6.7510    18.9650 c5         1 YNG       0.101000
     33 C51        -35.6850    -8.1960    19.0470 c5         1 YNG      -0.032400
     34 C52        -35.1000    -8.7140    17.7250 c3         1 YNG       0.031300
     35 C54        -36.9910    -9.6690    16.5020 cc         1 YNG       0.586400
     36 C56        -37.9980    -8.7360    14.6550 cd         1 YNG       0.802200
     37 C58        -37.0760    -7.6860    14.7070 cc         1 YNG      -0.176900
     38 C59        -36.1060    -7.6950    15.7140 cc         1 YNG      -0.045300
     39 C61        -35.8490    -5.9990    14.5400 cd         1 YNG       0.537200
     40 N04        -32.3420    -9.6700    22.2890 na         1 YNG      -0.175400
     41 N15        -35.2140    -3.3290    16.7840 na         1 YNG      -0.121400
     42 N28        -40.0750    -1.2780    15.3440 n          1 YNG      -0.345000
     43 N42        -47.1050     2.3540    14.3960 n          1 YNG      -0.386000
     44 N44        -49.1170     3.4380    14.6770 nt         1 YNG      -0.658000
     45 N47        -42.7350    -0.6260    12.9640 na         1 YNG      -0.126400
     46 N53        -36.0690    -8.7070    16.6330 na         1 YNG      -0.173900
     47 N55        -37.9130    -9.7190    15.5830 nd         1 YNG      -0.815000
     48 N60        -35.3200    -6.6320    15.6160 nd         1 YNG      -0.440300
     49 N62        -36.8890    -6.5690    13.9510 nc         1 YNG      -0.587100
     50 O07        -31.3380    -6.7900    22.3610 oh         1 YNG      -0.488100
     51 O20        -35.2370    -1.6110    14.3930 os         1 YNG      -0.315900
     52 O23        -37.6360    -0.5140    13.7000 oh         1 YNG      -0.517100
     53 O35        -44.8540    -0.3840    10.9320 os         1 YNG      -0.312900
     54 O45        -48.8770     1.9370    13.0230 o          1 YNG      -0.666100
     55 O46        -47.0150     1.0990    11.5850 oh         1 YNG      -0.521100
     56 O49        -33.4500    -4.4030    18.6380 o          1 YNG      -0.588100
     57 H212       -33.6730    -0.3360    14.1700 h1         1 YNG       0.036033
     58 H211       -35.1910     0.4680    14.6050 h1         1 YNG       0.036033
     59 H213       -34.2810    -0.4370    15.8320 h1         1 YNG       0.036033
     60 H262       -39.9800    -2.5830    18.3360 hc         1 YNG       0.066200
     61 H261       -40.4240    -3.6570    17.0140 hc         1 YNG       0.066200
     62 H013       -35.0420   -11.3920    19.4100 hc         1 YNG       0.034033
     63 H011       -35.0300   -12.3080    20.9090 hc         1 YNG       0.034033
     64 H012       -36.1280   -10.9490    20.7170 hc         1 YNG       0.034033
     65 H031       -32.9010   -11.7160    22.4010 h4         1 YNG       0.163000
     66 H081       -32.7350    -5.2860    20.8560 ha         1 YNG       0.177000
     67 H161       -37.5770    -4.3750    18.8020 ha         1 YNG       0.152000
     68 H271       -40.7750    -0.6520    17.2280 h1         1 YNG       0.060700
     69 H272       -41.8280    -1.8120    16.4040 h1         1 YNG       0.060700
     70 H311       -42.4500     0.5530    16.0140 ha         1 YNG       0.155000
     71 H361       -45.3500    -1.9800     9.7790 h1         1 YNG       0.035367
     72 H362       -45.1760    -2.3660    11.5000 h1         1 YNG       0.035367
     73 H363       -46.6180    -1.5060    10.9220 h1         1 YNG       0.035367
     74 H402       -45.6120     1.3630    16.7990 hc         1 YNG       0.066200
     75 H401       -44.5260     2.6640    16.3360 hc         1 YNG       0.066200
     76 H411       -46.2680     3.9760    15.4550 h1         1 YNG       0.050700
     77 H412       -47.3280     2.9350    16.4170 h1         1 YNG       0.050700
     78 H501       -36.9350    -6.5800    19.7380 h1         1 YNG       0.071200
     79 H502       -36.6110    -6.4810    18.0070 h1         1 YNG       0.071200
     80 H511       -36.4900    -8.8560    19.3760 hc         1 YNG       0.068700
     81 H521       -34.7360    -9.7330    17.8510 h1         1 YNG       0.087200
     82 H522       -34.2560    -8.1030    17.4110 h1         1 YNG       0.087200
     83 H541       -36.9440   -10.4700    17.2300 h5         1 YNG       0.046100
     84 H611       -35.4300    -5.0660    14.1850 h5         1 YNG       0.059800
     85 H041       -31.5930    -9.6970    22.9600 hn         1 YNG       0.297700
     86 H151       -34.2710    -3.3000    16.4300 hn         1 YNG       0.328700
     87 H441       -50.0220     3.6660    14.3000 hn         1 YNG       0.321000
     88 H442       -48.7120     4.1300    15.2850 hn         1 YNG       0.321000
     89 H471       -42.4060    -1.1020    12.1390 hn         1 YNG       0.330700
     90 H572       -39.5940    -9.6070    13.7460 hn         1 YNG       0.458800
     91 H571       -39.0610    -8.1290    13.0270 hn         1 YNG       0.458800
     92 H071       -30.8300    -7.5070    22.7520 ho         1 YNG       0.418000
     93 H231       -38.5170    -0.6320    13.2630 ho         1 YNG       0.474000
     94 H461       -47.8480     1.4220    12.0360 ho         1 YNG       0.485000
     95 C01        -35.1200   -11.3040    20.4960 c3         1 YNG      -0.010900
     96 C29        -40.6450    -0.9940    14.1630 c          1 YNG       0.705300
     97 N57        -38.9580    -8.8280    13.7420 nv         1 YNG      -0.930500
     98 C43        -48.3770     2.5530    13.9800 c          1 YNG       0.801100
     99 O48        -40.0340    -1.1130    13.0890 o          1 YNG      -0.634100
    100 C36        -45.5410    -1.6210    10.7890 c3         1 YNG       0.119700
@<TRIPOS>BOND
     1     1     8 ar  
     2     1    15 ar  
     3     1    33 1   
     4     2     8 1   
     5     2     9 1   
     6     2    32 1   
     7     3     9 1   
     8     3    16 2   
     9     3    41 1   
    10     4    17 ar  
    11     4    18 ar  
    12     4    41 1   
    13     5    51 1   
    14     5    57 1   
    15     5    58 1   
    16     5    59 1   
    17     6    19 ar  
    18     6    20 ar  
    19     6    42 1   
    20     7    20 1   
    21     7    21 1   
    22     7    60 1   
    23     7    61 1   
    24     8    14 ar  
    25     9    56 2   
    26    10    11 2   
    27    10    15 1   
    28    10    95 1   
    29    11    40 1   
    30    11    65 1   
    31    12    13 ar  
    32    12    15 ar  
    33    12    40 1   
    34    13    14 ar  
    35    13    50 1   
    36    14    66 1   
    37    16    17 1   
    38    16    67 1   
    39    17    20 ar  
    40    18    19 ar  
    41    18    51 1   
    42    19    52 1   
    43    21    42 1   
    44    21    68 1   
    45    21    69 1   
    46    22    23 2   
    47    22    45 1   
    48    22    96 1   
    49    23    24 1   
    50    23    70 1   
    51    24    25 ar  
    52    24    29 ar  
    53    25    26 ar  
    54    25    45 1   
    55    26    27 ar  
    56    26    53 1   
    57    27    28 ar  
    58    27    55 1   
    59    28    29 ar  
    60    28    43 1   
    61    29    30 1   
    62    30    31 1   
    63    30    74 1   
    64    30    75 1   
    65    31    43 1   
    66    31    76 1   
    67    31    77 1   
    68    32    33 1   
    69    32    78 1   
    70    32    79 1   
    71    33    34 1   
    72    33    80 1   
    73    34    46 1   
    74    34    81 1   
    75    34    82 1   
    76    35    46 1   
    77    35    47 2   
    78    35    83 1   
    79    36    37 2   
    80    36    47 1   
    81    36    97 1   
    82    37    38 1   
    83    37    49 1   
    84    38    46 1   
    85    38    48 2   
    86    39    48 1   
    87    39    49 2   
    88    39    84 1   
    89    40    85 1   
    90    41    86 1   
    91    42    96 1   
    92    43    98 1   
    93    44    87 1   
    94    44    88 1   
    95    44    98 1   
    96    45    89 1   
    97    50    92 1   
    98    52    93 1   
    99    53   100 1   
   100    54    98 2   
   101    55    94 1   
   102    62    95 1   
   103    63    95 1   
   104    64    95 1   
   105    71   100 1   
   106    72   100 1   
   107    73   100 1   
   108    90    97 1   
   109    91    97 1   
   110    96    99 2   
@<TRIPOS>SUBSTRUCTURE
     1 YNG         1 TEMP              0 ****  ****    0 ROOT
