@<TRIPOS>MOLECULE
YNJ
   64    66     1     0     0
SMALL
abcg2


@<TRIPOS>ATOM
      1 C11        207.9870   204.1690   272.5470 ca         1 YNJ       0.217000
      2 C12        207.0800   203.6470   273.4690 ca         1 YNJ      -0.237600
      3 C13        207.1600   203.5380   274.9320 c          1 YNJ       0.607700
      4 C18        204.9870   203.2090   268.9170 c3         1 YNJ       0.160600
      5 C19        204.9970   203.4490   267.4240 c3         1 YNJ      -0.078400
      6 C20        205.1620   204.9120   267.0310 c3         1 YNJ      -0.068400
      7 C21        205.1080   205.1410   265.5220 c3         1 YNJ      -0.073400
      8 C22        203.7300   204.9300   264.9040 c3         1 YNJ      -0.044400
      9 C23        203.7020   205.1830   263.4030 c3         1 YNJ      -0.209400
     10 C24        204.4520   204.1470   262.5380 c          1 YNJ       0.715000
     11 C29        207.7350   199.3320   275.5660 c5         1 YNJ      -0.079900
     12 C01        203.6660   206.8710   277.3850 c3         1 YNJ      -0.089100
     13 C02        204.1290   205.4380   277.5970 c3         1 YNJ      -0.074400
     14 C04        205.2640   203.4110   276.5990 c3         1 YNJ      -0.057400
     15 C05        205.9530   202.7260   275.4130 c5         1 YNJ      -0.135000
     16 C06        205.0480   202.6180   274.1690 c5         1 YNJ      -0.037100
     17 C07        205.8780   203.1150   273.0270 ca         1 YNJ       0.004700
     18 C08        205.5420   203.0900   271.6850 ca         1 YNJ      -0.220000
     19 C09        206.4410   203.6090   270.7590 ca         1 YNJ       0.214100
     20 C10        207.6710   204.1460   271.2020 ca         1 YNJ       0.040000
     21 C27        206.4230   201.3050   275.8170 c5         1 YNJ      -0.050700
     22 C28        207.2500   200.5420   274.7770 c5         1 YNJ      -0.079900
     23 C30        208.1310   199.9230   276.9250 c5         1 YNJ      -0.079900
     24 C31        207.2600   201.1860   277.1060 c5         1 YNJ      -0.079900
     25 O14        208.0210   203.9990   275.6460 o          1 YNJ      -0.511100
     26 O17        206.2400   203.6420   269.4500 os         1 YNJ      -0.315100
     27 O25        204.8490   204.5430   261.4220 o          1 YNJ      -0.743000
     28 O26        204.5660   202.9930   262.9980 o          1 YNJ      -0.743000
     29 CL15       209.4880   204.8210   273.0610 cl         1 YNJ      -0.150000
     30 CL16       208.7580   204.7650   270.0240 cl         1 YNJ      -0.146000
     31 H1         204.1730   203.7700   269.3890 h1         1 YNJ       0.032700
     32 H2         204.8390   202.1470   269.1360 h1         1 YNJ       0.032700
     33 H3         204.0500   203.0560   267.0450 hc         1 YNJ       0.068200
     34 H4         205.7840   202.8450   266.9610 hc         1 YNJ       0.068200
     35 H5         206.1160   205.2850   267.4120 hc         1 YNJ       0.027200
     36 H6         204.3830   205.5100   267.5180 hc         1 YNJ       0.027200
     37 H7         205.8340   204.4850   265.0320 hc         1 YNJ       0.048700
     38 H8         205.4330   206.1640   265.3100 hc         1 YNJ       0.048700
     39 H9         203.0200   205.6010   265.4000 hc         1 YNJ       0.013200
     40 H10        203.3750   203.9160   265.0990 hc         1 YNJ       0.013200
     41 H11        204.0850   206.1850   263.1850 hc         1 YNJ       0.017200
     42 H12        202.6590   205.1900   263.0620 hc         1 YNJ       0.017200
     43 H13        206.9160   198.6180   275.6840 hc         1 YNJ       0.040200
     44 H14        208.5550   198.8040   275.0790 hc         1 YNJ       0.040200
     45 H15        203.2040   207.2800   278.2840 hc         1 YNJ       0.031367
     46 H16        204.5020   207.5200   277.1180 hc         1 YNJ       0.031367
     47 H17        202.9320   206.9350   276.5790 hc         1 YNJ       0.031367
     48 H18        203.2790   204.8160   277.8950 hc         1 YNJ       0.034700
     49 H19        204.8360   205.4030   278.4310 hc         1 YNJ       0.034700
     50 H20        205.6230   205.4740   276.0600 hc         1 YNJ       0.045200
     51 H21        204.0690   204.8710   275.5290 hc         1 YNJ       0.045200
     52 H22        204.4130   202.7890   276.8990 hc         1 YNJ       0.045700
     53 H23        205.9470   203.4180   277.4520 hc         1 YNJ       0.045700
     54 H24        204.1470   203.2290   274.2580 hc         1 YNJ       0.064200
     55 H25        204.7020   201.5980   273.9920 hc         1 YNJ       0.064200
     56 H26        204.5950   202.6690   271.3720 ha         1 YNJ       0.131000
     57 H27        205.4990   200.7340   275.9720 hc         1 YNJ       0.041700
     58 H28        206.6860   200.2730   273.8820 hc         1 YNJ       0.050700
     59 H29        208.1130   201.1320   274.4520 hc         1 YNJ       0.050700
     60 H30        207.9990   199.2080   277.7380 hc         1 YNJ       0.040200
     61 H31        209.1880   200.1960   276.9160 hc         1 YNJ       0.040200
     62 H32        207.8900   202.0630   277.2510 hc         1 YNJ       0.050700
     63 H33        206.6170   201.1150   277.9830 hc         1 YNJ       0.050700
     64 C03        204.7830   204.8380   276.3580 c3         1 YNJ      -0.080400
@<TRIPOS>BOND
     1     1     2 ar  
     2     1    20 ar  
     3     1    29 1   
     4     2     3 1   
     5     2    17 ar  
     6     3    15 1   
     7     3    25 2   
     8     4     5 1   
     9     4    26 1   
    10     4    31 1   
    11     4    32 1   
    12     5     6 1   
    13     5    33 1   
    14     5    34 1   
    15     6     7 1   
    16     6    35 1   
    17     6    36 1   
    18     7     8 1   
    19     7    37 1   
    20     7    38 1   
    21     8     9 1   
    22     8    39 1   
    23     8    40 1   
    24     9    10 1   
    25     9    41 1   
    26     9    42 1   
    27    10    27 1   
    28    10    28 1   
    29    11    22 1   
    30    11    23 1   
    31    11    43 1   
    32    11    44 1   
    33    12    13 1   
    34    12    45 1   
    35    12    46 1   
    36    12    47 1   
    37    13    48 1   
    38    13    49 1   
    39    13    64 1   
    40    14    15 1   
    41    14    52 1   
    42    14    53 1   
    43    14    64 1   
    44    15    16 1   
    45    15    21 1   
    46    16    17 1   
    47    16    54 1   
    48    16    55 1   
    49    17    18 ar  
    50    18    19 ar  
    51    18    56 1   
    52    19    20 ar  
    53    19    26 1   
    54    20    30 1   
    55    21    22 1   
    56    21    24 1   
    57    21    57 1   
    58    22    58 1   
    59    22    59 1   
    60    23    24 1   
    61    23    60 1   
    62    23    61 1   
    63    24    62 1   
    64    24    63 1   
    65    50    64 1   
    66    51    64 1   
@<TRIPOS>SUBSTRUCTURE
     1 YNJ         1 TEMP              0 ****  ****    0 ROOT
