@<TRIPOS>MOLECULE
YNJ
   64    66     1     0     0
SMALL
No Charge or Current Charge


@<TRIPOS>ATOM
      1 C11        207.9700   204.2620   272.6160 ca         1 YNJ       0.217000
      2 C12        207.0470   203.7430   273.5440 ca         1 YNJ      -0.237600
      3 C13        207.1950   203.6550   275.0200 c          1 YNJ       0.607700
      4 C18        204.8610   203.2300   268.9440 c3         1 YNJ       0.160600
      5 C19        204.8820   203.4050   267.4120 c3         1 YNJ      -0.078400
      6 C20        204.9260   204.8850   266.9510 c3         1 YNJ      -0.068400
      7 C21        204.9970   205.0770   265.4170 c3         1 YNJ      -0.073400
      8 C22        203.7370   204.5980   264.6520 c3         1 YNJ      -0.044400
      9 C23        203.7370   204.9320   263.1380 c3         1 YNJ      -0.209400
     10 C24        204.8500   204.1750   262.3880 c          1 YNJ       0.715000
     11 C29        207.7020   199.3470   275.2580 c5         1 YNJ      -0.079900
     12 C01        203.7580   206.9480   277.7820 c3         1 YNJ      -0.089100
     13 C02        204.2120   205.4820   277.9140 c3         1 YNJ      -0.074400
     14 C04        205.2940   203.4460   276.7580 c3         1 YNJ      -0.057400
     15 C05        205.9680   202.7980   275.5020 c5         1 YNJ      -0.135000
     16 C06        204.9720   202.7090   274.2570 c5         1 YNJ      -0.037100
     17 C07        205.8350   203.2230   273.1310 ca         1 YNJ       0.004700
     18 C08        205.4890   203.2040   271.7740 ca         1 YNJ      -0.220000
     19 C09        206.3940   203.7210   270.8200 ca         1 YNJ       0.214100
     20 C10        207.6360   204.2490   271.2430 ca         1 YNJ       0.040000
     21 C27        206.3920   201.2750   275.7640 c5         1 YNJ      -0.050700
     22 C28        207.2520   200.6810   274.6070 c5         1 YNJ      -0.079900
     23 C30        207.9560   199.7140   276.7580 c5         1 YNJ      -0.079900
     24 C31        207.4290   201.1730   276.9200 c5         1 YNJ      -0.079900
     25 O14        208.0260   204.2510   275.6950 o          1 YNJ      -0.511100
     26 O17        206.1040   203.7260   269.4680 os         1 YNJ      -0.315100
     27 O25        205.9290   204.7290   262.2350 o          1 YNJ      -0.743000
     28 O26        204.6110   203.0450   261.9920 o          1 YNJ      -0.743000
     29 Cl15       209.5340   204.9020   273.1330 cl         1 YNJ      -0.150000
     30 Cl16       208.7690   204.8900   270.0420 cl         1 YNJ      -0.146000
     31 H1         204.0110   203.7820   269.3640 h1         1 YNJ       0.032700
     32 H2         204.7410   202.1650   269.1830 h1         1 YNJ       0.032700
     33 H3         203.9860   202.9230   267.0060 hc         1 YNJ       0.068200
     34 H4         205.7450   202.8650   267.0020 hc         1 YNJ       0.068200
     35 H5         205.8040   205.3710   267.3950 hc         1 YNJ       0.027200
     36 H6         204.0470   205.4130   267.3410 hc         1 YNJ       0.027200
     37 H7         205.8820   204.5550   265.0350 hc         1 YNJ       0.048700
     38 H8         205.1500   206.1440   265.2120 hc         1 YNJ       0.048700
     39 H9         202.8530   205.0620   265.1080 hc         1 YNJ       0.013200
     40 H10        203.6210   203.5150   264.7730 hc         1 YNJ       0.013200
     41 H11        203.8840   206.0170   263.0620 hc         1 YNJ       0.017200
     42 H12        202.7550   204.6000   262.7800 hc         1 YNJ       0.017200
     43 H13        206.9160   198.5870   275.1730 hc         1 YNJ       0.040200
     44 H14        208.5950   198.9350   274.7730 hc         1 YNJ       0.040200
     45 H15        203.3220   207.3000   278.7250 hc         1 YNJ       0.031367
     46 H16        204.6060   207.5970   277.5330 hc         1 YNJ       0.031367
     47 H17        203.0000   207.0500   276.9960 hc         1 YNJ       0.031367
     48 H18        203.3500   204.8660   278.1970 hc         1 YNJ       0.034700
     49 H19        204.9410   205.4080   278.7310 hc         1 YNJ       0.034700
     50 H20        205.6920   205.5520   276.3420 hc         1 YNJ       0.045200
     51 H21        204.1030   205.0180   275.8100 hc         1 YNJ       0.045200
     52 H22        204.4270   202.8420   277.0520 hc         1 YNJ       0.045700
     53 H23        205.9880   203.4070   277.6060 hc         1 YNJ       0.045700
     54 H24        204.0840   203.3380   274.3740 hc         1 YNJ       0.064200
     55 H25        204.5920   201.7000   274.0610 hc         1 YNJ       0.064200
     56 H26        204.5280   202.7900   271.4830 ha         1 YNJ       0.131000
     57 H27        205.5140   200.6510   275.9770 hc         1 YNJ       0.041700
     58 H28        206.6850   200.5090   273.6850 hc         1 YNJ       0.050700
     59 H29        208.1240   201.2930   274.3490 hc         1 YNJ       0.050700
     60 H30        207.4220   199.0220   277.4200 hc         1 YNJ       0.040200
     61 H31        209.0180   199.6450   277.0210 hc         1 YNJ       0.040200
     62 H32        208.2530   201.8880   276.8190 hc         1 YNJ       0.050700
     63 H33        206.9830   201.3290   277.9090 hc         1 YNJ       0.050700
     64 C03        204.8370   204.9230   276.6170 c3         1 YNJ      -0.080400
@<TRIPOS>BOND
     1     1     2 ar  
     2     1    20 ar  
     3     1    29 1   
     4     2     3 1   
     5     2    17 ar  
     6     3    15 1   
     7     3    25 2   
     8     4     5 1   
     9     4    26 1   
    10     4    31 1   
    11     4    32 1   
    12     5     6 1   
    13     5    33 1   
    14     5    34 1   
    15     6     7 1   
    16     6    35 1   
    17     6    36 1   
    18     7     8 1   
    19     7    37 1   
    20     7    38 1   
    21     8     9 1   
    22     8    39 1   
    23     8    40 1   
    24     9    10 1   
    25     9    41 1   
    26     9    42 1   
    27    10    27 1   
    28    10    28 1   
    29    11    22 1   
    30    11    23 1   
    31    11    43 1   
    32    11    44 1   
    33    12    13 1   
    34    12    45 1   
    35    12    46 1   
    36    12    47 1   
    37    13    48 1   
    38    13    49 1   
    39    13    64 1   
    40    14    15 1   
    41    14    52 1   
    42    14    53 1   
    43    14    64 1   
    44    15    16 1   
    45    15    21 1   
    46    16    17 1   
    47    16    54 1   
    48    16    55 1   
    49    17    18 ar  
    50    18    19 ar  
    51    18    56 1   
    52    19    20 ar  
    53    19    26 1   
    54    20    30 1   
    55    21    22 1   
    56    21    24 1   
    57    21    57 1   
    58    22    58 1   
    59    22    59 1   
    60    23    24 1   
    61    23    60 1   
    62    23    61 1   
    63    24    62 1   
    64    24    63 1   
    65    50    64 1   
    66    51    64 1   
@<TRIPOS>SUBSTRUCTURE
     1 YNJ         1 TEMP              0 ****  ****    0 ROOT
