@<TRIPOS>MOLECULE
YNK
   60    63     1     0     0
SMALL
No Charge or Current Charge


@<TRIPOS>ATOM
      1 C1          28.9080     7.4610   -34.9880 c3         1 YNK      -0.083100
      2 C2          27.7940     7.8580   -33.9790 c6         1 YNK       0.181200
      3 C3          28.1910     7.2580   -32.5930 c3         1 YNK      -0.083100
      4 C5          26.4200     9.8820   -33.1110 c6         1 YNK      -0.090400
      5 C6          25.1310     9.2170   -33.6490 c6         1 YNK       0.209500
      6 C7          25.3110     7.6640   -33.6940 c6         1 YNK       0.140800
      7 C10         22.6440     9.4970   -33.1260 ca         1 YNK       0.413900
      8 C12         20.4830     9.8010   -32.4750 ca         1 YNK       0.205900
      9 C13         20.0300     9.3300   -33.7240 ca         1 YNK      -0.397300
     10 C14         21.0250     8.9130   -34.6450 ca         1 YNK       0.334800
     11 C16         20.7300     8.3810   -35.9770 cc         1 YNK      -0.267000
     12 N18         20.0100     6.8770   -37.5230 na         1 YNK      -0.201700
     13 C19         20.9480     7.7140   -38.1230 ca         1 YNK      -0.019200
     14 C21         22.3990     8.6620   -39.8190 ca         1 YNK       0.056000
     15 C22         22.9600     8.7460   -41.1450 cg         1 YNK       0.303000
     16 C24         22.8610     9.5980   -38.8590 ca         1 YNK      -0.128000
     17 C25         22.3680     9.5890   -37.5430 ca         1 YNK      -0.019000
     18 C26         21.4130     8.6250   -37.2140 ca         1 YNK      -0.048800
     19 C31         18.5310     9.3240   -34.0290 c3         1 YNK       0.382300
     20 C4          27.6530     9.4120   -33.9270 c6         1 YNK      -0.100400
     21 N8          26.5320     7.2380   -34.4510 n7         1 YNK      -0.847400
     22 N9          23.9880     9.6120   -32.7970 nu         1 YNK      -0.908100
     23 N11         21.7890     9.8840   -32.1730 nb         1 YNK      -0.255000
     24 N15         22.3310     9.0230   -34.3400 nb         1 YNK      -0.275000
     25 C17         19.9190     7.2700   -36.1650 cd         1 YNK      -0.079100
     26 C20         21.4170     7.6870   -39.4570 ca         1 YNK      -0.289500
     27 N23         23.4240     8.8290   -42.2130 n1         1 YNK      -0.446000
     28 P27         20.7540     6.4260   -40.6300 py         1 YNK       1.196500
     29 O28         19.7450     5.5050   -40.0340 o          1 YNK      -0.579000
     30 C29         20.0900     7.3350   -42.0710 c3         1 YNK      -0.480600
     31 C30         22.1890     5.5240   -41.3160 c3         1 YNK      -0.480600
     32 F32         18.2530     9.7000   -35.2970 f          1 YNK      -0.117000
     33 F33         17.8460    10.1740   -33.2300 f          1 YNK      -0.117000
     34 F34         17.9890     8.1010   -33.8410 f          1 YNK      -0.117000
     35 H41         29.8780     7.8800   -34.6940 hc         1 YNK       0.039033
     36 H40         29.0250     6.3720   -35.0520 hc         1 YNK       0.039033
     37 H39         28.6860     7.8280   -35.9970 hc         1 YNK       0.039033
     38 H43         27.4620     7.4890   -31.8100 hc         1 YNK       0.039033
     39 H42         28.2780     6.1660   -32.6430 hc         1 YNK       0.039033
     40 H44         29.1580     7.6490   -32.2570 hc         1 YNK       0.039033
     41 H47         26.5600     9.6430   -32.0480 hc         1 YNK       0.048700
     42 H48         26.3320    10.9760   -33.1750 hc         1 YNK       0.048700
     43 H35         24.9750     9.5790   -34.6770 h1         1 YNK       0.065700
     44 H49         24.4230     7.2090   -34.1570 h1         1 YNK       0.065700
     45 H50         25.3610     7.2790   -32.6650 h1         1 YNK       0.065700
     46 H52         19.7940    10.1310   -31.6990 h4         1 YNK       0.036100
     47 H38         19.5240     6.0960   -37.9610 hn         1 YNK       0.414000
     48 H54         23.6060    10.3410   -39.1370 ha         1 YNK       0.123000
     49 H55         22.7180    10.3110   -36.8090 ha         1 YNK       0.133000
     50 H45         28.5650     9.8580   -33.5050 hc         1 YNK       0.046700
     51 H46         27.5710     9.8080   -34.9490 hc         1 YNK       0.046700
     52 H37         26.4030     7.5010   -35.4340 hn         1 YNK       0.411000
     53 H51         24.1750     9.9870   -31.8670 hn         1 YNK       0.512000
     54 H53         19.3230     6.7110   -35.4480 h4         1 YNK       0.235000
     55 H57         19.6300     8.2670   -41.7240 hc         1 YNK       0.086867
     56 H56         20.8750     7.5640   -42.7980 hc         1 YNK       0.086867
     57 H58         19.3270     6.7160   -42.5540 hc         1 YNK       0.086867
     58 H60         22.9560     5.4320   -40.5400 hc         1 YNK       0.086867
     59 H59         21.8620     4.5240   -41.6190 hc         1 YNK       0.086867
     60 H61         22.6090     6.0410   -42.1840 hc         1 YNK       0.086867
@<TRIPOS>BOND
     1     1     2 1   
     2     1    35 1   
     3     1    36 1   
     4     1    37 1   
     5     2     3 1   
     6     2    20 1   
     7     2    21 1   
     8     3    38 1   
     9     3    39 1   
    10     3    40 1   
    11     4     5 1   
    12     4    20 1   
    13     4    41 1   
    14     4    42 1   
    15     5     6 1   
    16     5    22 1   
    17     5    43 1   
    18     6    21 1   
    19     6    44 1   
    20     6    45 1   
    21     7    22 1   
    22     7    23 ar  
    23     7    24 ar  
    24     8     9 ar  
    25     8    23 ar  
    26     8    46 1   
    27     9    10 ar  
    28     9    19 1   
    29    10    11 1   
    30    10    24 ar  
    31    11    18 1   
    32    11    25 2   
    33    12    13 1   
    34    12    25 1   
    35    12    47 1   
    36    13    18 ar  
    37    13    26 ar  
    38    14    15 1   
    39    14    16 ar  
    40    14    26 ar  
    41    15    27 3   
    42    16    17 ar  
    43    16    48 1   
    44    17    18 ar  
    45    17    49 1   
    46    19    32 1   
    47    19    33 1   
    48    19    34 1   
    49    20    50 1   
    50    20    51 1   
    51    21    52 1   
    52    22    53 1   
    53    25    54 1   
    54    26    28 1   
    55    28    29 2   
    56    28    30 1   
    57    28    31 1   
    58    30    55 1   
    59    30    56 1   
    60    30    57 1   
    61    31    58 1   
    62    31    59 1   
    63    31    60 1   
@<TRIPOS>SUBSTRUCTURE
     1 YNK         1 TEMP              0 ****  ****    0 ROOT
