@<TRIPOS>MOLECULE
YNK
   60    63     1     0     0
SMALL
abcg2


@<TRIPOS>ATOM
      1 C1          28.5790     7.7020   -35.3520 c3         1 YNK      -0.083100
      2 C2          27.6160     7.9880   -34.2050 c6         1 YNK       0.181200
      3 C3          28.1990     7.4040   -32.9170 c3         1 YNK      -0.083100
      4 C5          26.2770     9.8860   -33.1390 c6         1 YNK      -0.090400
      5 C6          25.0020     9.1820   -33.5810 c6         1 YNK       0.209500
      6 C7          25.2430     7.6710   -33.6540 c6         1 YNK       0.140800
      7 C10         22.6150     9.4100   -33.0100 ca         1 YNK       0.413900
      8 C12         20.4610     9.7580   -32.4530 ca         1 YNK       0.205900
      9 C13         20.0290     9.3180   -33.7030 ca         1 YNK      -0.397300
     10 C14         21.0330     8.8440   -34.5660 ca         1 YNK       0.334800
     11 C16         20.8050     8.2530   -35.8800 cc         1 YNK      -0.267000
     12 N18         20.0060     6.9920   -37.5400 na         1 YNK      -0.201700
     13 C19         21.0960     7.6280   -38.0590 ca         1 YNK      -0.019200
     14 C21         22.7560     8.3620   -39.5710 ca         1 YNK       0.056000
     15 C22         23.3860     8.4130   -40.8490 cg         1 YNK       0.303000
     16 C24         23.3220     9.1600   -38.5590 ca         1 YNK      -0.128000
     17 C25         22.7770     9.1970   -37.2950 ca         1 YNK      -0.019000
     18 C26         21.6450     8.4270   -37.0260 ca         1 YNK      -0.048800
     19 C31         18.5900     9.4190   -34.0640 c3         1 YNK       0.382300
     20 C4          27.4240     9.5100   -34.0700 c6         1 YNK      -0.100400
     21 N8          26.3520     7.3120   -34.5170 n7         1 YNK      -0.847400
     22 N9          23.9090     9.5230   -32.6930 nu         1 YNK      -0.908100
     23 N11         21.7210     9.7970   -32.0840 nb         1 YNK      -0.255000
     24 N15         22.3070     8.9210   -34.2120 nb         1 YNK      -0.275000
     25 C17         19.8280     7.3600   -36.2570 cd         1 YNK      -0.079100
     26 C20         21.6260     7.5690   -39.3480 ca         1 YNK      -0.289500
     27 N23         23.9190     8.4750   -41.8700 n1         1 YNK      -0.446000
     28 P27         20.7990     6.5080   -40.5870 py         1 YNK       1.196500
     29 O28         19.6400     5.7840   -39.9490 o          1 YNK      -0.579000
     30 C29         20.2990     7.6050   -41.9320 c3         1 YNK      -0.480600
     31 C30         22.0500     5.3880   -41.2490 c3         1 YNK      -0.480600
     32 F32         18.4030     9.8770   -35.3090 f          1 YNK      -0.117000
     33 F33         17.9360    10.2520   -33.2450 f          1 YNK      -0.117000
     34 F34         17.9360     8.2430   -33.9910 f          1 YNK      -0.117000
     35 H41         29.5460     8.1770   -35.1760 hc         1 YNK       0.039033
     36 H40         28.7450     6.6300   -35.4660 hc         1 YNK       0.039033
     37 H39         28.1890     8.0870   -36.2980 hc         1 YNK       0.039033
     38 H43         27.5630     7.5720   -32.0470 hc         1 YNK       0.039033
     39 H42         28.3420     6.3270   -33.0190 hc         1 YNK       0.039033
     40 H44         29.1680     7.8550   -32.7020 hc         1 YNK       0.039033
     41 H47         26.5110     9.6080   -32.1050 hc         1 YNK       0.048700
     42 H48         26.1310    10.9690   -33.1460 hc         1 YNK       0.048700
     43 H35         24.7450     9.5350   -34.5860 h1         1 YNK       0.065700
     44 H49         24.3450     7.1700   -34.0200 h1         1 YNK       0.065700
     45 H50         25.4200     7.2910   -32.6420 h1         1 YNK       0.065700
     46 H52         19.7470    10.1000   -31.7130 h4         1 YNK       0.036100
     47 H38         19.4450     6.3400   -38.0780 hn         1 YNK       0.414000
     48 H54         24.1980     9.7520   -38.7860 ha         1 YNK       0.123000
     49 H55         23.2270     9.8130   -36.5300 ha         1 YNK       0.133000
     50 H45         28.3530     9.9760   -33.7290 hc         1 YNK       0.046700
     51 H46         27.2180     9.9250   -35.0630 hc         1 YNK       0.046700
     52 H37         26.0950     7.5310   -35.4740 hn         1 YNK       0.411000
     53 H51         24.1200     9.8570   -31.7650 hn         1 YNK       0.512000
     54 H53         19.0300     6.9230   -35.6810 h4         1 YNK       0.235000
     55 H57         19.6120     8.3580   -41.5470 hc         1 YNK       0.086867
     56 H56         21.1460     8.1020   -42.4010 hc         1 YNK       0.086867
     57 H58         19.7850     7.0120   -42.6880 hc         1 YNK       0.086867
     58 H60         22.4340     4.7590   -40.4470 hc         1 YNK       0.086867
     59 H59         21.5740     4.7530   -41.9970 hc         1 YNK       0.086867
     60 H61         22.8780     5.9120   -41.7210 hc         1 YNK       0.086867
@<TRIPOS>BOND
     1     1     2 1   
     2     1    35 1   
     3     1    36 1   
     4     1    37 1   
     5     2     3 1   
     6     2    20 1   
     7     2    21 1   
     8     3    38 1   
     9     3    39 1   
    10     3    40 1   
    11     4     5 1   
    12     4    20 1   
    13     4    41 1   
    14     4    42 1   
    15     5     6 1   
    16     5    22 1   
    17     5    43 1   
    18     6    21 1   
    19     6    44 1   
    20     6    45 1   
    21     7    22 1   
    22     7    23 ar  
    23     7    24 ar  
    24     8     9 ar  
    25     8    23 ar  
    26     8    46 1   
    27     9    10 ar  
    28     9    19 1   
    29    10    11 1   
    30    10    24 ar  
    31    11    18 1   
    32    11    25 2   
    33    12    13 1   
    34    12    25 1   
    35    12    47 1   
    36    13    18 ar  
    37    13    26 ar  
    38    14    15 1   
    39    14    16 ar  
    40    14    26 ar  
    41    15    27 3   
    42    16    17 ar  
    43    16    48 1   
    44    17    18 ar  
    45    17    49 1   
    46    19    32 1   
    47    19    33 1   
    48    19    34 1   
    49    20    50 1   
    50    20    51 1   
    51    21    52 1   
    52    22    53 1   
    53    25    54 1   
    54    26    28 1   
    55    28    29 2   
    56    28    30 1   
    57    28    31 1   
    58    30    55 1   
    59    30    56 1   
    60    30    57 1   
    61    31    58 1   
    62    31    59 1   
    63    31    60 1   
@<TRIPOS>SUBSTRUCTURE
     1 YNK         1 TEMP              0 ****  ****    0 ROOT
