@<TRIPOS>MOLECULE
YNL
   38    40     1     0     0
SMALL
abcg2


@<TRIPOS>ATOM
      1 C10        130.9810   131.8520   137.7730 ce         1 YNL       0.538500
      2 C11        128.3320   131.4110   139.0640 c          1 YNL       0.558000
      3 C07        130.4870   131.4010   140.1850 ca         1 YNL       0.009000
      4 C08        131.3500   131.8960   139.2000 ca         1 YNL      -0.193900
      5 C12        128.8400   132.6180   138.2970 c3         1 YNL       0.022800
      6 C13        130.8700   131.4990   141.5240 ca         1 YNL      -0.129000
      7 C14        128.8160   128.3640   139.5510 c3         1 YNL       0.131800
      8 C15        132.5650   132.4740   139.5670 ca         1 YNL      -0.055000
      9 C16        132.0060   131.4710   136.7740 ca         1 YNL      -0.188900
     10 C17        132.0760   132.0660   141.8840 ca         1 YNL      -0.070000
     11 C18        132.9180   132.5590   140.8960 ca         1 YNL       0.102000
     12 C19        132.9480   130.4740   137.0050 ca         1 YNL       0.196000
     13 C20        132.0300   132.0960   135.5260 ca         1 YNL      -0.044000
     14 C21        133.8830   130.1010   136.0590 ca         1 YNL      -0.163000
     15 C22        132.9600   131.7440   134.5640 ca         1 YNL      -0.137000
     16 C23        133.8880   130.7450   134.8320 ca         1 YNL      -0.068000
     17 F02        132.9460   129.8260   138.1780 f          1 YNL      -0.162000
     18 N04        129.2560   130.7950   139.8630 n          1 YNL      -0.241400
     19 N05        129.8300   132.1800   137.3410 n2         1 YNL      -0.572900
     20 N06        130.1010   128.1600   138.9020 n8         1 YNL      -0.994200
     21 O03        127.2000   130.9900   138.9430 o          1 YNL      -0.527000
     22 CL01       134.4230   133.2900   141.3380 cl         1 YNL      -0.192000
     23 H091       129.6210   129.3180   141.2760 h1         1 YNL       0.060200
     24 H092       127.9160   129.6580   141.0270 h1         1 YNL       0.060200
     25 H122       129.2300   133.3740   138.9910 h1         1 YNL       0.081700
     26 H121       127.9990   133.0560   137.7640 h1         1 YNL       0.081700
     27 H131       130.2110   131.1430   142.3050 ha         1 YNL       0.127000
     28 H142       128.5850   127.4810   140.1500 h1         1 YNL       0.043200
     29 H141       127.9820   128.4910   138.8530 h1         1 YNL       0.043200
     30 H151       133.2260   132.8600   138.8020 ha         1 YNL       0.138000
     31 H171       132.3480   132.1380   142.9280 ha         1 YNL       0.133000
     32 H201       131.3090   132.8770   135.3250 ha         1 YNL       0.133000
     33 H211       134.5910   129.3140   136.2820 ha         1 YNL       0.135000
     34 H221       132.9660   132.2510   133.6080 ha         1 YNL       0.123000
     35 H231       134.6180   130.4640   134.0850 ha         1 YNL       0.119000
     36 H062       130.0980   127.2660   138.4290 hn         1 YNL       0.396500
     37 H1         130.2230   128.8480   138.1700 hn         1 YNL       0.396500
     38 C09        128.8730   129.5380   140.5180 c3         1 YNL       0.109000
@<TRIPOS>BOND
     1     1     4 1   
     2     1     9 1   
     3     1    19 2   
     4     2     5 1   
     5     2    18 1   
     6     2    21 2   
     7     3     4 ar  
     8     3     6 ar  
     9     3    18 1   
    10     4     8 ar  
    11     5    19 1   
    12     5    25 1   
    13     5    26 1   
    14     6    10 ar  
    15     6    27 1   
    16     7    20 1   
    17     7    28 1   
    18     7    29 1   
    19     7    38 1   
    20     8    11 ar  
    21     8    30 1   
    22     9    12 ar  
    23     9    13 ar  
    24    10    11 ar  
    25    10    31 1   
    26    11    22 1   
    27    12    14 ar  
    28    12    17 1   
    29    13    15 ar  
    30    13    32 1   
    31    14    16 ar  
    32    14    33 1   
    33    15    16 ar  
    34    15    34 1   
    35    16    35 1   
    36    18    38 1   
    37    20    36 1   
    38    20    37 1   
    39    23    38 1   
    40    24    38 1   
@<TRIPOS>SUBSTRUCTURE
     1 YNL         1 TEMP              0 ****  ****    0 ROOT
