@<TRIPOS>MOLECULE
YNL
   38    40     1     0     0
SMALL
No Charge or Current Charge


@<TRIPOS>ATOM
      1 C10        130.9390   131.9110   137.6930 ce         1 YNL       0.538500
      2 C11        128.2600   131.4880   138.9510 c          1 YNL       0.558000
      3 C07        130.4840   131.2670   140.1280 ca         1 YNL       0.009000
      4 C08        131.3160   131.8670   139.1430 ca         1 YNL      -0.193900
      5 C12        128.7680   132.7840   138.2860 c3         1 YNL       0.022800
      6 C13        130.8650   131.3880   141.4860 ca         1 YNL      -0.129000
      7 C14        128.9670   128.2650   139.6940 c3         1 YNL       0.131800
      8 C15        132.5590   132.4240   139.5200 ca         1 YNL      -0.055000
      9 C16        131.9680   131.5430   136.6720 ca         1 YNL      -0.188900
     10 C17        132.1000   131.9470   141.8490 ca         1 YNL      -0.070000
     11 C18        132.9550   132.4490   140.8620 ca         1 YNL       0.102000
     12 C19        132.7810   130.4030   136.8480 ca         1 YNL       0.196000
     13 C20        132.0850   132.2790   135.4690 ca         1 YNL      -0.044000
     14 C21        133.7230   130.0360   135.8740 ca         1 YNL      -0.163000
     15 C22        133.0310   131.9100   134.4960 ca         1 YNL      -0.137000
     16 C23        133.8550   130.7930   134.6980 ca         1 YNL      -0.068000
     17 F02        132.6500   129.6240   137.9450 f          1 YNL      -0.162000
     18 N04        129.1490   130.7990   139.8160 n          1 YNL      -0.241400
     19 N05        129.8520   132.5120   137.3180 n2         1 YNL      -0.572900
     20 N06        130.4130   127.9300   139.6710 n8         1 YNL      -0.994200
     21 O03        127.1320   131.0700   138.7110 o          1 YNL      -0.527000
     22 Cl01       134.5010   133.1580   141.3120 cl         1 YNL      -0.192000
     23 H091       129.0740   129.4620   141.4860 h1         1 YNL       0.060200
     24 H092       127.5620   129.6290   140.6220 h1         1 YNL       0.060200
     25 H122       129.1020   133.4610   139.0840 h1         1 YNL       0.081700
     26 H121       127.9130   133.2590   137.7890 h1         1 YNL       0.081700
     27 H131       130.2040   131.0520   142.2800 ha         1 YNL       0.127000
     28 H142       128.4260   127.4250   140.1510 h1         1 YNL       0.043200
     29 H141       128.6100   128.3760   138.6610 h1         1 YNL       0.043200
     30 H151       133.2170   132.8580   138.7690 ha         1 YNL       0.138000
     31 H171       132.3870   132.0050   142.8960 ha         1 YNL       0.133000
     32 H201       131.4540   133.1480   135.2910 ha         1 YNL       0.133000
     33 H211       134.3440   129.1580   136.0280 ha         1 YNL       0.135000
     34 H221       133.1210   132.4920   133.5810 ha         1 YNL       0.123000
     35 H231       134.5840   130.5070   133.9430 ha         1 YNL       0.119000
     36 H062       130.5690   127.1430   139.0300 hn         1 YNL       0.396500
     37 H1         130.9320   128.7050   139.2410 hn         1 YNL       0.396500
     38 C09        128.6480   129.5610   140.4830 c3         1 YNL       0.109000
@<TRIPOS>BOND
     1     1     4 1   
     2     1     9 1   
     3     1    19 2   
     4     2     5 1   
     5     2    18 1   
     6     2    21 2   
     7     3     4 ar  
     8     3     6 ar  
     9     3    18 1   
    10     4     8 ar  
    11     5    19 1   
    12     5    25 1   
    13     5    26 1   
    14     6    10 ar  
    15     6    27 1   
    16     7    20 1   
    17     7    28 1   
    18     7    29 1   
    19     7    38 1   
    20     8    11 ar  
    21     8    30 1   
    22     9    12 ar  
    23     9    13 ar  
    24    10    11 ar  
    25    10    31 1   
    26    11    22 1   
    27    12    14 ar  
    28    12    17 1   
    29    13    15 ar  
    30    13    32 1   
    31    14    16 ar  
    32    14    33 1   
    33    15    16 ar  
    34    15    34 1   
    35    16    35 1   
    36    18    38 1   
    37    20    36 1   
    38    20    37 1   
    39    23    38 1   
    40    24    38 1   
@<TRIPOS>SUBSTRUCTURE
     1 YNL         1 TEMP              0 ****  ****    0 ROOT
