@<TRIPOS>MOLECULE
YNQ
   49    53     1     0     0
SMALL
No Charge or Current Charge


@<TRIPOS>ATOM
      1 N1          37.2370    11.9600    -4.4320 nc         1 YNQ      -0.618100
      2 C7          34.0470    12.1300    -2.4480 ca         1 YNQ      -0.067000
      3 C8          38.6910    10.5780    -5.8870 ca         1 YNQ      -0.120900
      4 N2          36.4720     9.8400    -4.8620 na         1 YNQ      -0.298600
      5 C9          39.6630    11.5970    -6.0180 ca         1 YNQ      -0.046000
      6 O1          43.0570    12.1860    -7.0130 o          1 YNQ      -0.570100
      7 C1          35.2710    12.6200    -2.9760 ca         1 YNQ      -0.100600
      8 C5          34.3700     9.9720    -3.5460 ca         1 YNQ      -0.093000
      9 C6          33.6010    10.8200    -2.7300 ca         1 YNQ      -0.102000
     10 N3          41.4760    13.8450    -6.8760 n          1 YNQ      -0.426800
     11 C4          35.5720    10.4750    -4.0550 ca         1 YNQ      -0.088200
     12 C3          37.4770    10.7930    -5.0640 cd         1 YNQ       0.481400
     13 C2          36.0230    11.7410    -3.7950 ca         1 YNQ       0.097400
     14 N4          41.5910    15.9420    -8.8060 na         1 YNQ      -0.339000
     15 N           36.8740    14.4780    -3.1550 nt         1 YNQ      -0.603000
     16 C           35.7100    14.0320    -2.6470 c          1 YNQ       0.620700
     17 O           35.0520    14.7810    -1.9410 o          1 YNQ      -0.618100
     18 C10         40.8170    11.4120    -6.8140 ca         1 YNQ      -0.153600
     19 C11         41.0170    10.1680    -7.4450 ca         1 YNQ      -0.048000
     20 C12         40.0610     9.1490    -7.3220 ca         1 YNQ      -0.115000
     21 C13         38.9030     9.3520    -6.5550 ca         1 YNQ      -0.080000
     22 C14         41.8720    12.4880    -6.9420 c          1 YNQ       0.618700
     23 C15         40.2040    14.3270    -7.5090 c6         1 YNQ       0.092000
     24 C16         40.4490    15.0070    -8.8860 c6         1 YNQ       0.055600
     25 C17         42.5410    15.9150    -7.8210 cc         1 YNQ       0.382800
     26 C18         41.9560    16.9460    -9.6790 cc         1 YNQ       0.263800
     27 C19         41.2080    17.3410   -10.9440 c3         1 YNQ       0.307700
     28 C20         42.4830    14.9430    -6.6640 c6         1 YNQ       0.071700
     29 F           41.0480    16.2880   -11.7790 f          1 YNQ      -0.097000
     30 F1          41.8530    18.3040   -11.6430 f          1 YNQ      -0.097000
     31 F2          39.9730    17.8180   -10.6620 f          1 YNQ      -0.097000
     32 N5          43.4340    16.8610    -8.0620 nd         1 YNQ      -0.339000
     33 N6          43.0700    17.5040    -9.2240 nd         1 YNQ      -0.287000
     34 H2          33.4350    12.7680    -1.8130 ha         1 YNQ       0.144000
     35 H3          36.4380     8.9010    -5.2340 hn         1 YNQ       0.362000
     36 H4          39.5300    12.5370    -5.4850 ha         1 YNQ       0.142000
     37 H5          34.0400     8.9610    -3.7720 ha         1 YNQ       0.121000
     38 H6          32.6600    10.4660    -2.3140 ha         1 YNQ       0.122000
     39 H7          37.1890    15.4130    -2.9500 hn         1 YNQ       0.328500
     40 H8          37.4130    13.8510    -3.7380 hn         1 YNQ       0.328500
     41 H9          41.9110     9.9930    -8.0430 ha         1 YNQ       0.135000
     42 H10         40.2190     8.1960    -7.8230 ha         1 YNQ       0.126000
     43 H11         38.1800     8.5430    -6.4810 ha         1 YNQ       0.112000
     44 H12         39.7290    15.0520    -6.8320 h1         1 YNQ       0.072200
     45 H13         39.4880    13.5100    -7.6590 h1         1 YNQ       0.072200
     46 H14         40.6750    14.2370    -9.6370 h1         1 YNQ       0.083700
     47 H15         39.5410    15.5390    -9.2050 h1         1 YNQ       0.083700
     48 H16         42.2150    15.4910    -5.7510 h1         1 YNQ       0.091700
     49 H17         43.4850    14.5280    -6.4910 h1         1 YNQ       0.091700
@<TRIPOS>BOND
     1     1    12 2   
     2     1    13 1   
     3     2     7 ar  
     4     2     9 ar  
     5     2    34 1   
     6     3     5 ar  
     7     3    12 1   
     8     3    21 ar  
     9     4    11 1   
    10     4    12 1   
    11     4    35 1   
    12     5    18 ar  
    13     5    36 1   
    14     6    22 2   
    15     7    13 ar  
    16     7    16 1   
    17     8     9 ar  
    18     8    11 ar  
    19     8    37 1   
    20     9    38 1   
    21    10    22 1   
    22    10    23 1   
    23    10    28 1   
    24    11    13 ar  
    25    14    24 1   
    26    14    25 1   
    27    14    26 1   
    28    15    16 1   
    29    15    39 1   
    30    15    40 1   
    31    16    17 2   
    32    18    19 ar  
    33    18    22 1   
    34    19    20 ar  
    35    19    41 1   
    36    20    21 ar  
    37    20    42 1   
    38    21    43 1   
    39    23    24 1   
    40    23    44 1   
    41    23    45 1   
    42    24    46 1   
    43    24    47 1   
    44    25    28 1   
    45    25    32 2   
    46    26    27 1   
    47    26    33 2   
    48    27    29 1   
    49    27    30 1   
    50    27    31 1   
    51    28    48 1   
    52    28    49 1   
    53    32    33 1   
@<TRIPOS>SUBSTRUCTURE
     1 YNQ         1 TEMP              0 ****  ****    0 ROOT
