@<TRIPOS>MOLECULE
YNQ
   49    53     1     0     0
SMALL
abcg2


@<TRIPOS>ATOM
      1 N1          37.2930    12.0640    -4.7430 nc         1 YNQ      -0.618100
      2 C7          34.1620    12.5940    -2.8450 ca         1 YNQ      -0.067000
      3 C8          38.8100    10.4760    -5.8150 ca         1 YNQ      -0.120900
      4 N2          36.6940     9.9400    -4.6180 na         1 YNQ      -0.298600
      5 C9          39.7980    11.4450    -5.9790 ca         1 YNQ      -0.046000
      6 O1          43.1810    11.8780    -6.4980 o          1 YNQ      -0.570100
      7 C1          35.3230    12.9960    -3.4900 ca         1 YNQ      -0.100600
      8 C5          34.5530    10.2430    -3.3180 ca         1 YNQ      -0.093000
      9 C6          33.7860    11.2490    -2.7590 ca         1 YNQ      -0.102000
     10 N3          41.7240    13.4300    -7.2290 n          1 YNQ      -0.426800
     11 C4          35.7150    10.6390    -3.9640 ca         1 YNQ      -0.088200
     12 C3          37.6110    10.8330    -5.0610 cd         1 YNQ       0.481400
     13 C2          36.1130    11.9830    -4.0560 ca         1 YNQ       0.097400
     14 N4          41.3860    15.8410    -8.6000 na         1 YNQ      -0.339000
     15 N           36.7900    14.7730    -4.1840 nt         1 YNQ      -0.603000
     16 C           35.6530    14.4550    -3.5510 c          1 YNQ       0.620700
     17 O           34.9130    15.2900    -3.0470 o          1 YNQ      -0.618100
     18 C10         40.9430    11.1710    -6.7100 ca         1 YNQ      -0.153600
     19 C11         41.1230     9.9080    -7.2650 ca         1 YNQ      -0.048000
     20 C12         40.1380     8.9440    -7.1160 ca         1 YNQ      -0.115000
     21 C13         38.9850     9.2220    -6.3970 ca         1 YNQ      -0.080000
     22 C14         42.0420    12.1800    -6.8130 c          1 YNQ       0.618700
     23 C15         40.4390    13.8000    -7.8020 c6         1 YNQ       0.092000
     24 C16         40.6140    14.6870    -9.0200 c6         1 YNQ       0.055600
     25 C17         42.3540    15.7420    -7.6720 cc         1 YNQ       0.382800
     26 C18         41.3260    17.1620    -8.8830 cc         1 YNQ       0.263800
     27 C19         40.3890    17.7700    -9.8680 c3         1 YNQ       0.307700
     28 C20         42.7850    14.4290    -7.1280 c6         1 YNQ       0.071700
     29 F           40.5070    17.1840   -11.0630 f          1 YNQ      -0.097000
     30 F1          40.6330    19.0650   -10.0120 f          1 YNQ      -0.097000
     31 F2          39.1140    17.6300    -9.4890 f          1 YNQ      -0.097000
     32 N5          42.8510    16.9200    -7.4050 nd         1 YNQ      -0.339000
     33 N6          42.2010    17.8140    -8.1780 nd         1 YNQ      -0.287000
     34 H2          33.5270    13.3450    -2.3960 ha         1 YNQ       0.144000
     35 H3          36.7360     8.9370    -4.7120 hn         1 YNQ       0.362000
     36 H4          39.6640    12.4150    -5.5160 ha         1 YNQ       0.142000
     37 H5          34.2600     9.2030    -3.2550 ha         1 YNQ       0.121000
     38 H6          32.8700    10.9930    -2.2430 ha         1 YNQ       0.122000
     39 H7          37.0620    15.7400    -4.2580 hn         1 YNQ       0.328500
     40 H8          37.3830    14.0650    -4.5960 hn         1 YNQ       0.328500
     41 H9          42.0220     9.6810    -7.8240 ha         1 YNQ       0.135000
     42 H10         40.2660     7.9680    -7.5650 ha         1 YNQ       0.126000
     43 H11         38.2270     8.4540    -6.3100 ha         1 YNQ       0.112000
     44 H12         39.8120    14.3160    -7.0700 h1         1 YNQ       0.072200
     45 H13         39.9100    12.9060    -8.1210 h1         1 YNQ       0.072200
     46 H14         41.1360    14.1670    -9.8230 h1         1 YNQ       0.083700
     47 H15         39.6370    14.9980    -9.3800 h1         1 YNQ       0.083700
     48 H16         43.1000    14.5590    -6.0910 h1         1 YNQ       0.091700
     49 H17         43.6620    14.0940    -7.6880 h1         1 YNQ       0.091700
@<TRIPOS>BOND
     1     1    12 2   
     2     1    13 1   
     3     2     7 ar  
     4     2     9 ar  
     5     2    34 1   
     6     3     5 ar  
     7     3    12 1   
     8     3    21 ar  
     9     4    11 1   
    10     4    12 1   
    11     4    35 1   
    12     5    18 ar  
    13     5    36 1   
    14     6    22 2   
    15     7    13 ar  
    16     7    16 1   
    17     8     9 ar  
    18     8    11 ar  
    19     8    37 1   
    20     9    38 1   
    21    10    22 1   
    22    10    23 1   
    23    10    28 1   
    24    11    13 ar  
    25    14    24 1   
    26    14    25 1   
    27    14    26 1   
    28    15    16 1   
    29    15    39 1   
    30    15    40 1   
    31    16    17 2   
    32    18    19 ar  
    33    18    22 1   
    34    19    20 ar  
    35    19    41 1   
    36    20    21 ar  
    37    20    42 1   
    38    21    43 1   
    39    23    24 1   
    40    23    44 1   
    41    23    45 1   
    42    24    46 1   
    43    24    47 1   
    44    25    28 1   
    45    25    32 2   
    46    26    27 1   
    47    26    33 2   
    48    27    29 1   
    49    27    30 1   
    50    27    31 1   
    51    28    48 1   
    52    28    49 1   
    53    32    33 1   
@<TRIPOS>SUBSTRUCTURE
     1 YNQ         1 TEMP              0 ****  ****    0 ROOT
