@<TRIPOS>MOLECULE
YNT
   35    36     1     0     0
SMALL
abcg2


@<TRIPOS>ATOM
      1 C10        131.0940   137.8120   139.7940 c3         1 YNT      -0.081600
      2 C13        132.7670   144.3490   140.1880 ca         1 YNT      -0.090000
      3 C15        133.1920   145.4690   140.8860 ca         1 YNT       0.114000
      4 C17        133.3800   145.4450   142.2570 ca         1 YNT      -0.095000
      5 C05        131.6300   139.0760   140.4540 c6         1 YNT       0.154200
      6 C06        133.2140   140.9000   140.0310 c6         1 YNT       0.171500
      7 C07        132.0540   141.9220   140.1350 c6         1 YNT       0.404300
      8 C08        130.5230   140.1260   140.4850 c6         1 YNT       0.129600
      9 C09        132.1050   138.7430   141.8690 c3         1 YNT      -0.081600
     10 C11        134.3170   141.3420   139.0830 c3         1 YNT      -0.083100
     11 C12        132.5050   143.1700   140.8750 ca         1 YNT      -0.097300
     12 C14        132.6920   143.1340   142.2560 ca         1 YNT      -0.078000
     13 C16        133.1280   144.2610   142.9360 ca         1 YNT      -0.109000
     14 N04        132.7550   139.5730   139.6550 n7         1 YNT      -0.855400
     15 O02        131.0080   141.3900   140.9090 os         1 YNT      -0.478000
     16 O03        131.6270   142.1950   138.8380 oh         1 YNT      -0.673000
     17 H103       130.2440   137.4160   140.3520 hc         1 YNT       0.041033
     18 H102       130.7600   138.0070   138.7720 hc         1 YNT       0.041033
     19 H101       131.8640   137.0410   139.7560 hc         1 YNT       0.041033
     20 H131       132.6420   144.4030   139.1150 ha         1 YNT       0.137000
     21 H171       133.7150   146.3260   142.7860 ha         1 YNT       0.130000
     22 H061       133.6460   140.8310   141.0350 h1         1 YNT       0.071700
     23 H081       130.0600   140.2020   139.4930 h1         1 YNT       0.053200
     24 H082       129.7370   139.8540   141.1930 h1         1 YNT       0.053200
     25 H093       131.2910   138.3010   142.4450 hc         1 YNT       0.041033
     26 H091       132.9250   138.0260   141.8330 hc         1 YNT       0.041033
     27 H092       132.4510   139.6190   142.4190 hc         1 YNT       0.041033
     28 H112       134.7080   142.3240   139.3450 hc         1 YNT       0.045367
     29 H111       135.1430   140.6320   139.1300 hc         1 YNT       0.045367
     30 H113       133.9690   141.3820   138.0500 hc         1 YNT       0.045367
     31 H141       132.4990   142.2250   142.8100 ha         1 YNT       0.128000
     32 H161       133.2710   144.2220   144.0070 ha         1 YNT       0.119000
     33 H1         132.4800   139.5880   138.6780 hn         1 YNT       0.421000
     34 H031       130.8470   142.7640   138.8680 ho         1 YNT       0.459000
     35 CL01       133.4940   146.9390   140.0140 cl         1 YNT      -0.205000
@<TRIPOS>BOND
     1     1     5 1   
     2     1    17 1   
     3     1    18 1   
     4     1    19 1   
     5     2     3 ar  
     6     2    11 ar  
     7     2    20 1   
     8     3     4 ar  
     9     3    35 1   
    10     4    13 ar  
    11     4    21 1   
    12     5     8 1   
    13     5     9 1   
    14     5    14 1   
    15     6     7 1   
    16     6    10 1   
    17     6    14 1   
    18     6    22 1   
    19     7    11 1   
    20     7    15 1   
    21     7    16 1   
    22     8    15 1   
    23     8    23 1   
    24     8    24 1   
    25     9    25 1   
    26     9    26 1   
    27     9    27 1   
    28    10    28 1   
    29    10    29 1   
    30    10    30 1   
    31    11    12 ar  
    32    12    13 ar  
    33    12    31 1   
    34    13    32 1   
    35    14    33 1   
    36    16    34 1   
@<TRIPOS>SUBSTRUCTURE
     1 YNT         1 TEMP              0 ****  ****    0 ROOT
