@<TRIPOS>MOLECULE
YNT
   35    36     1     0     0
SMALL
No Charge or Current Charge


@<TRIPOS>ATOM
      1 C10        131.0920   137.7380   139.7160 c3         1 YNT      -0.081600
      2 C13        132.8480   144.3940   140.1530 ca         1 YNT      -0.090000
      3 C15        133.3040   145.5450   140.8170 ca         1 YNT       0.114000
      4 C17        133.4210   145.5570   142.2150 ca         1 YNT      -0.095000
      5 C05        131.6150   139.0120   140.4360 c6         1 YNT       0.154200
      6 C06        133.2090   140.8990   140.0690 c6         1 YNT       0.171500
      7 C07        132.0130   141.9420   140.1770 c6         1 YNT       0.404300
      8 C08        130.4620   140.0730   140.5520 c6         1 YNT       0.129600
      9 C09        132.1260   138.5830   141.8450 c3         1 YNT      -0.081600
     10 C11        134.3500   141.3590   139.1210 c3         1 YNT      -0.083100
     11 C12        132.4940   143.2330   140.8840 ca         1 YNT      -0.097300
     12 C14        132.6300   143.2560   142.2920 ca         1 YNT      -0.078000
     13 C16        133.0860   144.4100   142.9520 ca         1 YNT      -0.109000
     14 N04        132.7550   139.5370   139.6310 n7         1 YNT      -0.855400
     15 O02        130.9580   141.3440   141.0400 os         1 YNT      -0.478000
     16 O03        131.4960   142.2670   138.8350 oh         1 YNT      -0.673000
     17 H103       130.2570   137.2850   140.2640 hc         1 YNT       0.041033
     18 H102       130.7340   137.9670   138.7050 hc         1 YNT       0.041033
     19 H101       131.8770   136.9770   139.6240 hc         1 YNT       0.041033
     20 H131       132.7850   144.4130   139.0690 ha         1 YNT       0.137000
     21 H171       133.7760   146.4500   142.7240 ha         1 YNT       0.130000
     22 H061       133.6630   140.8120   141.0680 h1         1 YNT       0.071700
     23 H081       129.9890   140.2240   139.5710 h1         1 YNT       0.053200
     24 H082       129.6860   139.7070   141.2390 h1         1 YNT       0.053200
     25 H093       131.3340   138.0890   142.4200 hc         1 YNT       0.041033
     26 H091       132.9660   137.8820   141.7710 hc         1 YNT       0.041033
     27 H092       132.4630   139.4400   142.4400 hc         1 YNT       0.041033
     28 H112       134.7700   142.3190   139.4410 hc         1 YNT       0.045367
     29 H111       135.1710   140.6320   139.1140 hc         1 YNT       0.045367
     30 H113       134.0000   141.4740   138.0880 hc         1 YNT       0.045367
     31 H141       132.3840   142.3750   142.8810 ha         1 YNT       0.128000
     32 H161       133.1820   144.4140   144.0360 ha         1 YNT       0.119000
     33 H1         132.4220   139.6440   138.6660 hn         1 YNT       0.421000
     34 H031       130.6800   142.7790   139.0050 ho         1 YNT       0.459000
     35 Cl01       133.7380   146.9750   139.8910 cl         1 YNT      -0.205000
@<TRIPOS>BOND
     1     1     5 1   
     2     1    17 1   
     3     1    18 1   
     4     1    19 1   
     5     2     3 ar  
     6     2    11 ar  
     7     2    20 1   
     8     3     4 ar  
     9     3    35 1   
    10     4    13 ar  
    11     4    21 1   
    12     5     8 1   
    13     5     9 1   
    14     5    14 1   
    15     6     7 1   
    16     6    10 1   
    17     6    14 1   
    18     6    22 1   
    19     7    11 1   
    20     7    15 1   
    21     7    16 1   
    22     8    15 1   
    23     8    23 1   
    24     8    24 1   
    25     9    25 1   
    26     9    26 1   
    27     9    27 1   
    28    10    28 1   
    29    10    29 1   
    30    10    30 1   
    31    11    12 ar  
    32    12    13 ar  
    33    12    31 1   
    34    13    32 1   
    35    14    33 1   
    36    16    34 1   
@<TRIPOS>SUBSTRUCTURE
     1 YNT         1 TEMP              0 ****  ****    0 ROOT
