@<TRIPOS>MOLECULE
YNU
   60    65     1     0     0
SMALL
No Charge or Current Charge


@<TRIPOS>ATOM
      1 C1          -0.8880    -0.9250     0.1690 cx         1 YNU       0.114000
      2 C3           0.1030    -1.8180     0.8920 cx         1 YNU       0.093300
      3 C7          -3.2370    -0.2150    -0.6900 c2         1 YNU      -0.025400
      4 C8           1.2120     0.5940    -0.4500 c5         1 YNU      -0.064700
      5 C9          -1.2420     1.3850    -1.0490 c6         1 YNU      -0.109700
      6 C10          3.5180     0.1160    -0.0730 c5         1 YNU       0.188000
      7 C11          1.6240    -1.5320     0.9340 c6         1 YNU      -0.061400
      8 C12         -2.6150     0.8880    -1.5620 c6         1 YNU      -0.037200
      9 C14         -4.5610    -0.1600    -0.3960 ce         1 YNU      -0.293200
     10 C15         -1.3300     2.3900     0.1180 c          1 YNU       0.594100
     11 C16          5.3870    -0.9100     0.8540 c          1 YNU       0.657100
     12 C19          3.4920     1.2100    -1.1990 c5         1 YNU      -0.076400
     13 C20         -5.2840    -1.1760     0.4080 c          1 YNU       0.577300
     14 C21          3.7350     0.8030     1.3250 c5         1 YNU      -0.103400
     15 O28         -0.6480     3.5580    -0.1170 os         1 YNU      -0.449100
     16 C30         -0.6460     4.5620     0.9140 c3         1 YNU       0.151900
     17 O2          -0.6430    -0.7840     1.5840 op         1 YNU      -0.427000
     18 C4          -0.2690     0.1740    -0.8040 c6         1 YNU      -0.027700
     19 C5          -2.3260    -1.4030    -0.2540 c6         1 YNU       0.008200
     20 C6           2.1420    -0.6550    -0.2560 c5         1 YNU      -0.051000
     21 O13          4.6470    -0.7580    -0.2870 os         1 YNU      -0.426100
     22 C17          1.9740     1.4520    -1.5070 c5         1 YNU      -0.071400
     23 C18         -3.0160    -2.1870     0.9270 c6         1 YNU      -0.063400
     24 O22         -1.9460     2.1610     1.1500 o          1 YNU      -0.463000
     25 O23          6.6060    -0.9520     0.7910 o          1 YNU      -0.493000
     26 O24         -6.4240    -0.9960     0.8120 o          1 YNU      -0.526100
     27 C25          4.6000    -0.2840     2.0080 c5         1 YNU      -0.199400
     28 C26         -4.5210    -2.4670     0.6930 c6         1 YNU      -0.181400
     29 C29         -2.1900    -2.3560    -1.4880 c3         1 YNU      -0.086100
     30 H1          -0.1840    -2.8370     1.1520 h1         1 YNU       0.089700
     31 H2           1.1150     1.1590     0.4840 hc         1 YNU       0.073700
     32 H3          -0.7930     1.9620    -1.8690 hc         1 YNU       0.079700
     33 H4           1.8060    -1.0310     1.8900 hc         1 YNU       0.060200
     34 H5           2.1740    -2.4820     0.9840 hc         1 YNU       0.060200
     35 H6          -2.4960     0.4960    -2.5820 hc         1 YNU       0.061700
     36 H7          -3.3000     1.7420    -1.6550 hc         1 YNU       0.061700
     37 H8          -5.1690     0.6850    -0.7090 ha         1 YNU       0.198000
     38 H9           3.9950     2.1390    -0.9110 hc         1 YNU       0.061700
     39 H10          4.0080     0.8590    -2.1000 hc         1 YNU       0.061700
     40 H11          4.3010     1.7390     1.2470 hc         1 YNU       0.068200
     41 H12          2.8220     1.0320     1.8850 hc         1 YNU       0.068200
     42 H16         -0.0650     5.4360     0.5930 h1         1 YNU       0.049033
     43 H17         -1.6680     4.8960     1.1380 h1         1 YNU       0.049033
     44 H18         -0.1960     4.1740     1.8370 h1         1 YNU       0.049033
     45 H19         -0.1930    -0.3160    -1.7810 hc         1 YNU       0.066700
     46 H20          1.7290     1.1450    -2.5300 hc         1 YNU       0.051200
     47 H21          1.7100     2.5130    -1.4310 hc         1 YNU       0.051200
     48 H22         -2.4950    -3.1340     1.1190 hc         1 YNU       0.059700
     49 H23         -2.9440    -1.6050     1.8560 hc         1 YNU       0.059700
     50 H24          3.9480    -1.0570     2.4200 hc         1 YNU       0.083200
     51 H25          5.2690     0.0980     2.7870 hc         1 YNU       0.083200
     52 H26         -4.9920    -3.0040     1.5270 hc         1 YNU       0.069700
     53 H27         -4.6180    -3.0960    -0.1990 hc         1 YNU       0.069700
     54 H28         -1.6950    -1.8720    -2.3350 hc         1 YNU       0.041033
     55 H29         -1.6050    -3.2500    -1.2380 hc         1 YNU       0.041033
     56 H30         -3.1650    -2.6930    -1.8570 hc         1 YNU       0.041033
     57 C27          2.1900    -1.6080    -1.5060 c3         1 YNU      -0.083100
     58 H13          2.4760    -1.0920    -2.4280 hc         1 YNU       0.043033
     59 H14          2.9190    -2.4150    -1.3580 hc         1 YNU       0.043033
     60 H15          1.2270    -2.0970    -1.6950 hc         1 YNU       0.043033
@<TRIPOS>BOND
     1     1     2 1   
     2     1    17 1   
     3     1    18 1   
     4     1    19 1   
     5     2     7 1   
     6     2    17 1   
     7     2    30 1   
     8     3     8 1   
     9     3     9 2   
    10     3    19 1   
    11     4    18 1   
    12     4    20 1   
    13     4    22 1   
    14     4    31 1   
    15     5     8 1   
    16     5    10 1   
    17     5    18 1   
    18     5    32 1   
    19     6    12 1   
    20     6    14 1   
    21     6    20 1   
    22     6    21 1   
    23     7    20 1   
    24     7    33 1   
    25     7    34 1   
    26     8    35 1   
    27     8    36 1   
    28     9    13 1   
    29     9    37 1   
    30    10    15 1   
    31    10    24 2   
    32    11    21 1   
    33    11    25 2   
    34    11    27 1   
    35    12    22 1   
    36    12    38 1   
    37    12    39 1   
    38    13    26 2   
    39    13    28 1   
    40    14    27 1   
    41    14    40 1   
    42    14    41 1   
    43    15    16 1   
    44    16    42 1   
    45    16    43 1   
    46    16    44 1   
    47    18    45 1   
    48    19    23 1   
    49    19    29 1   
    50    20    57 1   
    51    22    46 1   
    52    22    47 1   
    53    23    28 1   
    54    23    48 1   
    55    23    49 1   
    56    27    50 1   
    57    27    51 1   
    58    28    52 1   
    59    28    53 1   
    60    29    54 1   
    61    29    55 1   
    62    29    56 1   
    63    57    58 1   
    64    57    59 1   
    65    57    60 1   
@<TRIPOS>SUBSTRUCTURE
     1 YNU         1 TEMP              0 ****  ****    0 ROOT
