@<TRIPOS>MOLECULE
YNU
   60    65     1     0     0
SMALL
abcg2


@<TRIPOS>ATOM
      1 C1          -0.8450    -0.6820     0.1370 cx         1 YNU       0.114000
      2 C3           0.0640    -1.3880     1.0520 cx         1 YNU       0.093300
      3 C7          -3.1340    -0.2140    -0.7900 c2         1 YNU      -0.025400
      4 C8           1.1600     0.6810    -0.5270 c5         1 YNU      -0.064700
      5 C9          -1.2390     1.4350    -1.1320 c6         1 YNU      -0.109700
      6 C10          3.4330     0.1440    -0.2040 c5         1 YNU       0.188000
      7 C11          1.5720    -1.2440     1.0160 c6         1 YNU      -0.061400
      8 C12         -2.5450     0.8520    -1.6630 c6         1 YNU      -0.037200
      9 C14         -4.4620    -0.2500    -0.5990 ce         1 YNU      -0.293200
     10 C15         -1.4870     2.2670     0.1050 c          1 YNU       0.594100
     11 C16          5.1520    -1.0280     0.8010 c          1 YNU       0.657100
     12 C19          3.4000     1.0860    -1.4160 c5         1 YNU      -0.076400
     13 C20         -5.1560    -1.3080     0.1260 c          1 YNU       0.577300
     14 C21          3.7590     0.8620     1.1190 c5         1 YNU      -0.103400
     15 O28         -0.5380     3.1730     0.2950 os         1 YNU      -0.449100
     16 C30         -0.6310     3.9910     1.4610 c3         1 YNU       0.151900
     17 O2          -0.6790    -0.2480     1.4730 op         1 YNU      -0.427000
     18 C4          -0.2580     0.2750    -0.8870 c6         1 YNU      -0.027700
     19 C5          -2.2100    -1.2880    -0.2400 c6         1 YNU       0.008200
     20 C6           2.0460    -0.5420    -0.2540 c5         1 YNU      -0.051000
     21 O13          4.5020    -0.8110    -0.3400 os         1 YNU      -0.426100
     22 C17          1.9200     1.4800    -1.5950 c5         1 YNU      -0.071400
     23 C18         -2.8810    -1.9560     0.9680 c6         1 YNU      -0.063400
     24 O22         -2.4400     2.1410     0.8320 o          1 YNU      -0.463000
     25 O23          6.0420    -1.8330     0.8710 o          1 YNU      -0.493000
     26 O24         -6.3690    -1.3060     0.2480 o          1 YNU      -0.526100
     27 C25          4.5970    -0.1470     1.8860 c5         1 YNU      -0.199400
     28 C26         -4.3000    -2.4170     0.6720 c6         1 YNU      -0.181400
     29 C29         -1.9690    -2.3350    -1.3470 c3         1 YNU      -0.086100
     30 H1          -0.2810    -2.3190     1.4980 h1         1 YNU       0.089700
     31 H2           1.1370     1.2750     0.3910 hc         1 YNU       0.073700
     32 H3          -0.8070     2.0840    -1.8990 hc         1 YNU       0.079700
     33 H4           1.8670    -0.7050     1.9210 hc         1 YNU       0.060200
     34 H5           2.0140    -2.2400     1.0960 hc         1 YNU       0.060200
     35 H6          -2.3260     0.4080    -2.6400 hc         1 YNU       0.061700
     36 H7          -3.2830     1.6350    -1.8430 hc         1 YNU       0.061700
     37 H8          -5.0830     0.5320    -1.0250 ha         1 YNU       0.198000
     38 H9           4.0510     1.9480    -1.2680 hc         1 YNU       0.061700
     39 H10          3.7700     0.5630    -2.2990 hc         1 YNU       0.061700
     40 H11          4.3500     1.7540     0.9110 hc         1 YNU       0.068200
     41 H12          2.8710     1.1900     1.6570 hc         1 YNU       0.068200
     42 H16          0.2440     4.6330     1.4450 h1         1 YNU       0.049033
     43 H17         -1.5310     4.6060     1.4450 h1         1 YNU       0.049033
     44 H18         -0.6220     3.3910     2.3700 h1         1 YNU       0.049033
     45 H19         -0.2070    -0.2460    -1.8490 hc         1 YNU       0.066700
     46 H20          1.5730     1.2210    -2.5980 hc         1 YNU       0.051200
     47 H21          1.7640     2.5510    -1.4740 hc         1 YNU       0.051200
     48 H22         -2.2980    -2.8170     1.2960 hc         1 YNU       0.059700
     49 H23         -2.9070    -1.2510     1.8000 hc         1 YNU       0.059700
     50 H24          4.0080    -0.7650     2.5690 hc         1 YNU       0.083200
     51 H25          5.4020     0.2970     2.4710 hc         1 YNU       0.083200
     52 H26         -4.7660    -2.8220     1.5730 hc         1 YNU       0.069700
     53 H27         -4.3040    -3.2300    -0.0620 hc         1 YNU       0.069700
     54 H28         -1.4700    -1.9210    -2.2230 hc         1 YNU       0.041033
     55 H29         -1.3490    -3.1480    -0.9660 hc         1 YNU       0.041033
     56 H30         -2.9080    -2.7630    -1.6950 hc         1 YNU       0.041033
     57 C27          2.0000    -1.5540    -1.4050 c3         1 YNU      -0.083100
     58 H13          2.1580    -1.1020    -2.3850 hc         1 YNU       0.043033
     59 H14          2.7570    -2.3260    -1.2700 hc         1 YNU       0.043033
     60 H15          1.0380    -2.0670    -1.4350 hc         1 YNU       0.043033
@<TRIPOS>BOND
     1     1     2 1   
     2     1    17 1   
     3     1    18 1   
     4     1    19 1   
     5     2     7 1   
     6     2    17 1   
     7     2    30 1   
     8     3     8 1   
     9     3     9 2   
    10     3    19 1   
    11     4    18 1   
    12     4    20 1   
    13     4    22 1   
    14     4    31 1   
    15     5     8 1   
    16     5    10 1   
    17     5    18 1   
    18     5    32 1   
    19     6    12 1   
    20     6    14 1   
    21     6    20 1   
    22     6    21 1   
    23     7    20 1   
    24     7    33 1   
    25     7    34 1   
    26     8    35 1   
    27     8    36 1   
    28     9    13 1   
    29     9    37 1   
    30    10    15 1   
    31    10    24 2   
    32    11    21 1   
    33    11    25 2   
    34    11    27 1   
    35    12    22 1   
    36    12    38 1   
    37    12    39 1   
    38    13    26 2   
    39    13    28 1   
    40    14    27 1   
    41    14    40 1   
    42    14    41 1   
    43    15    16 1   
    44    16    42 1   
    45    16    43 1   
    46    16    44 1   
    47    18    45 1   
    48    19    23 1   
    49    19    29 1   
    50    20    57 1   
    51    22    46 1   
    52    22    47 1   
    53    23    28 1   
    54    23    48 1   
    55    23    49 1   
    56    27    50 1   
    57    27    51 1   
    58    28    52 1   
    59    28    53 1   
    60    29    54 1   
    61    29    55 1   
    62    29    56 1   
    63    57    58 1   
    64    57    59 1   
    65    57    60 1   
@<TRIPOS>SUBSTRUCTURE
     1 YNU         1 TEMP              0 ****  ****    0 ROOT
