@<TRIPOS>MOLECULE
YNV
  106   113     1     0     0
SMALL
abcg2


@<TRIPOS>ATOM
      1 C10        -14.3790   -32.0780    -5.8380 c2         1 YNV      -0.024900
      2 C13        -14.0150   -34.2680    -7.7040 c6         1 YNV      -0.037200
      3 C20        -18.5650   -34.4040   -11.9610 c2         1 YNV      -0.024900
      4 C23        -19.0590   -32.0180   -10.3790 c6         1 YNV      -0.037200
      5 C27        -13.8470   -33.6680   -10.6270 c6         1 YNV      -0.060400
      6 C30        -14.3300   -36.7510    -8.5190 c5         1 YNV      -0.065900
      7 C36        -18.3340   -33.0720   -12.6460 c6         1 YNV      -0.013300
      8 C40        -18.6520   -30.9360    -9.3860 c5         1 YNV      -0.070200
      9 C42        -19.0530   -29.3840    -7.5780 c5         1 YNV      -0.115900
     10 C45        -20.0350   -29.0490   -10.4310 c3         1 YNV      -0.071100
     11 C01        -16.3090   -34.2730    -6.4030 c3         1 YNV      -0.047700
     12 C02        -17.1540   -35.2760    -7.1280 c2         1 YNV      -0.214200
     13 C03        -17.8550   -35.0700    -8.2450 c2         1 YNV      -0.214200
     14 C04        -17.8160   -33.8220    -9.0700 c3         1 YNV      -0.047700
     15 C05        -14.3820   -30.3880    -7.6810 c6         1 YNV      -0.065400
     16 C06        -14.4220   -29.3100    -6.6090 c6         1 YNV      -0.181400
     17 C07        -15.1840   -29.7790    -5.4010 c          1 YNV       0.578300
     18 C09        -15.0240   -31.1920    -5.0620 ce         1 YNV      -0.326700
     19 C11        -14.1890   -33.4880    -5.3700 c6         1 YNV      -0.054200
     20 C12        -14.7790   -34.4740    -6.3860 c6         1 YNV      -0.044200
     21 C14        -14.1800   -32.8290    -8.2350 c6         1 YNV      -0.047700
     22 C15        -17.0960   -33.1600   -13.5530 c6         1 YNV      -0.065400
     23 C16        -17.0360   -34.4310   -14.3860 c6         1 YNV      -0.181400
     24 C17        -17.0840   -35.6470   -13.5040 c          1 YNV       0.578300
     25 C19        -17.9550   -35.5420   -12.3360 ce         1 YNV      -0.326700
     26 C21        -19.5400   -34.4130   -10.8270 c6         1 YNV      -0.054200
     27 C22        -19.1300   -33.4150    -9.7420 c6         1 YNV      -0.044200
     28 C24        -18.0780   -31.9750   -11.5660 c6         1 YNV      -0.047700
     29 C25        -13.8040   -31.7270    -7.1960 c6         1 YNV      -0.013300
     30 C26        -13.4650   -32.6230    -9.5790 c6         1 YNV      -0.073400
     31 C28        -13.6020   -35.0770   -10.1020 c5         1 YNV      -0.040500
     32 C29        -14.3950   -35.2480    -8.8010 c5         1 YNV      -0.070200
     33 C31        -14.3120   -37.3860    -9.9290 c5         1 YNV      -0.115900
     34 C32        -14.2500   -36.2000   -10.9170 c5         1 YNV       0.173800
     35 C34        -12.1000   -35.3370    -9.9380 c3         1 YNV      -0.071100
     36 C35        -12.2780   -31.6080    -7.0170 c3         1 YNV      -0.081100
     37 C37        -17.9980   -30.5640   -12.1650 c6         1 YNV      -0.073400
     38 C38        -17.6570   -29.4920   -11.1240 c6         1 YNV      -0.060400
     39 C39        -18.6510   -29.5180    -9.9690 c5         1 YNV      -0.040500
     40 C41        -19.4190   -30.8030    -8.0700 c5         1 YNV      -0.065900
     41 C43        -18.2240   -28.7450    -8.7160 c5         1 YNV       0.173800
     42 O08        -15.8570   -29.0300    -4.7140 o          1 YNV      -0.538600
     43 O18        -16.4810   -36.6750   -13.7650 o          1 YNV      -0.538600
     44 O33        -13.5640   -36.4620   -12.1160 oh         1 YNV      -0.655000
     45 O44        -18.3940   -27.3570    -8.8670 oh         1 YNV      -0.655000
     46 H2         -12.9570   -34.4330    -7.4570 hc         1 YNV       0.052700
     47 H3         -20.0690   -31.7920   -10.7450 hc         1 YNV       0.052700
     48 H4         -13.2900   -33.4830   -11.5500 hc         1 YNV       0.043950
     49 H5         -14.9100   -33.5560   -10.8770 hc         1 YNV       0.043950
     50 H6         -15.1770   -37.0890    -7.9230 hc         1 YNV       0.043700
     51 H7         -13.4270   -37.0100    -7.9600 hc         1 YNV       0.043700
     52 H8         -17.6030   -31.1260    -9.1170 hc         1 YNV       0.047700
     53 H9         -18.4880   -29.4040    -6.6440 hc         1 YNV       0.050950
     54 H10        -19.9490   -28.7880    -7.3910 hc         1 YNV       0.050950
     55 H11        -20.7560   -28.9860    -9.6150 hc         1 YNV       0.035867
     56 H12        -19.9700   -28.0580   -10.8810 hc         1 YNV       0.035867
     57 H13        -20.4650   -29.7110   -11.1830 hc         1 YNV       0.035867
     58 H14        -16.5380   -33.2630    -6.7490 hc         1 YNV       0.048950
     59 H15        -16.6240   -34.2900    -5.3530 hc         1 YNV       0.048950
     60 H16        -17.2210   -36.2550    -6.6620 ha         1 YNV       0.167500
     61 H17        -18.4430   -35.8990    -8.6290 ha         1 YNV       0.167500
     62 H18        -17.0480   -33.9550    -9.8430 hc         1 YNV       0.048950
     63 H19        -17.4560   -32.9960    -8.4580 hc         1 YNV       0.048950
     64 H20        -13.8070   -30.0250    -8.5350 hc         1 YNV       0.048950
     65 H21        -15.4030   -30.5520    -8.0460 hc         1 YNV       0.048950
     66 H22        -13.4090   -29.0540    -6.2800 hc         1 YNV       0.070200
     67 H23        -14.8680   -28.3910    -6.9950 hc         1 YNV       0.070200
     68 H24        -15.4340   -31.5110    -4.1090 ha         1 YNV       0.194500
     69 H26        -14.6400   -33.6220    -4.3850 hc         1 YNV       0.055700
     70 H27        -13.1190   -33.6910    -5.2560 hc         1 YNV       0.055700
     71 H28        -14.5720   -35.4880    -6.0250 hc         1 YNV       0.056200
     72 H29        -15.2490   -32.6970    -8.4410 hc         1 YNV       0.046700
     73 H30        -16.1970   -33.1130   -12.9290 hc         1 YNV       0.048950
     74 H31        -17.0570   -32.2930   -14.2140 hc         1 YNV       0.048950
     75 H32        -16.1370   -34.4550   -15.0040 hc         1 YNV       0.070200
     76 H33        -17.8900   -34.4870   -15.0700 hc         1 YNV       0.070200
     77 H34        -18.1400   -36.4580   -11.7840 ha         1 YNV       0.194500
     78 H35        -20.5270   -34.1260   -11.2070 hc         1 YNV       0.055700
     79 H36        -19.6460   -35.4230   -10.4280 hc         1 YNV       0.055700
     80 H37        -19.9170   -33.4020    -8.9820 hc         1 YNV       0.056200
     81 H38        -17.0810   -32.1940   -11.1570 hc         1 YNV       0.046700
     82 H39        -12.3820   -32.6370    -9.4360 hc         1 YNV       0.041450
     83 H40        -13.7020   -31.6320    -9.9720 hc         1 YNV       0.041450
     84 H41        -15.4340   -35.0350    -9.0690 hc         1 YNV       0.047700
     85 H42        -15.1860   -38.0130   -10.1100 hc         1 YNV       0.050950
     86 H43        -13.4360   -38.0240   -10.0630 hc         1 YNV       0.050950
     87 H44        -15.2800   -35.8800   -11.1360 h1         1 YNV       0.025200
     88 H45        -11.6400   -34.6610    -9.2180 hc         1 YNV       0.035867
     89 H46        -11.8830   -36.3500    -9.5980 hc         1 YNV       0.035867
     90 H47        -11.5790   -35.1930   -10.8850 hc         1 YNV       0.035867
     91 H48        -12.0300   -30.9300    -6.2000 hc         1 YNV       0.038867
     92 H49        -11.8160   -32.5700    -6.7950 hc         1 YNV       0.038867
     93 H50        -11.8080   -31.2170    -7.9190 hc         1 YNV       0.038867
     94 H51        -17.2460   -30.5340   -12.9570 hc         1 YNV       0.041450
     95 H52        -18.9460   -30.3060   -12.6420 hc         1 YNV       0.041450
     96 H53        -16.6490   -29.6770   -10.7320 hc         1 YNV       0.043950
     97 H54        -17.6320   -28.5110   -11.6060 hc         1 YNV       0.043950
     98 H55        -20.4950   -30.9000    -8.2350 hc         1 YNV       0.043700
     99 H56        -19.1410   -31.5770    -7.3520 hc         1 YNV       0.043700
    100 H57        -17.1610   -28.9740    -8.5400 h1         1 YNV       0.025200
    101 H61        -14.1240   -37.0200   -12.6650 ho         1 YNV       0.451500
    102 H62        -18.0800   -26.9270    -8.0660 ho         1 YNV       0.451500
    103 C46        -19.5850   -32.7650   -13.4890 c3         1 YNV      -0.081100
    104 H58        -20.4590   -32.5610   -12.8700 hc         1 YNV       0.038867
    105 H59        -19.4220   -31.8980   -14.1280 hc         1 YNV       0.038867
    106 H60        -19.8360   -33.6050   -14.1380 hc         1 YNV       0.038867
@<TRIPOS>BOND
     1     1    18 2   
     2     1    19 1   
     3     1    29 1   
     4     2    20 1   
     5     2    21 1   
     6     2    32 1   
     7     2    46 1   
     8     3     7 1   
     9     3    25 2   
    10     3    26 1   
    11     4     8 1   
    12     4    27 1   
    13     4    28 1   
    14     4    47 1   
    15     5    30 1   
    16     5    31 1   
    17     5    48 1   
    18     5    49 1   
    19     6    32 1   
    20     6    33 1   
    21     6    50 1   
    22     6    51 1   
    23     7    22 1   
    24     7    28 1   
    25     7   103 1   
    26     8    39 1   
    27     8    40 1   
    28     8    52 1   
    29     9    40 1   
    30     9    41 1   
    31     9    53 1   
    32     9    54 1   
    33    10    39 1   
    34    10    55 1   
    35    10    56 1   
    36    10    57 1   
    37    11    12 1   
    38    11    20 1   
    39    11    58 1   
    40    11    59 1   
    41    12    13 2   
    42    12    60 1   
    43    13    14 1   
    44    13    61 1   
    45    14    27 1   
    46    14    62 1   
    47    14    63 1   
    48    15    16 1   
    49    15    29 1   
    50    15    64 1   
    51    15    65 1   
    52    16    17 1   
    53    16    66 1   
    54    16    67 1   
    55    17    18 1   
    56    17    42 2   
    57    18    68 1   
    58    19    20 1   
    59    19    69 1   
    60    19    70 1   
    61    20    71 1   
    62    21    29 1   
    63    21    30 1   
    64    21    72 1   
    65    22    23 1   
    66    22    73 1   
    67    22    74 1   
    68    23    24 1   
    69    23    75 1   
    70    23    76 1   
    71    24    25 1   
    72    24    43 2   
    73    25    77 1   
    74    26    27 1   
    75    26    78 1   
    76    26    79 1   
    77    27    80 1   
    78    28    37 1   
    79    28    81 1   
    80    29    36 1   
    81    30    82 1   
    82    30    83 1   
    83    31    32 1   
    84    31    34 1   
    85    31    35 1   
    86    32    84 1   
    87    33    34 1   
    88    33    85 1   
    89    33    86 1   
    90    34    44 1   
    91    34    87 1   
    92    35    88 1   
    93    35    89 1   
    94    35    90 1   
    95    36    91 1   
    96    36    92 1   
    97    36    93 1   
    98    37    38 1   
    99    37    94 1   
   100    37    95 1   
   101    38    39 1   
   102    38    96 1   
   103    38    97 1   
   104    39    41 1   
   105    40    98 1   
   106    40    99 1   
   107    41    45 1   
   108    41   100 1   
   109    44   101 1   
   110    45   102 1   
   111   103   104 1   
   112   103   105 1   
   113   103   106 1   
@<TRIPOS>SUBSTRUCTURE
     1 YNV         1 TEMP              0 ****  ****    0 ROOT
