@<TRIPOS>MOLECULE
YNV
  106   113     1     0     0
SMALL
No Charge or Current Charge


@<TRIPOS>ATOM
      1 C10        -13.8340   -32.0540    -6.0940 c2         1 YNV      -0.024900
      2 C13        -13.8630   -34.5260    -7.7250 c6         1 YNV      -0.037200
      3 C20        -18.1150   -34.0900   -11.9480 c2         1 YNV      -0.024900
      4 C23        -19.2940   -31.8840   -10.3410 c6         1 YNV      -0.037200
      5 C27        -13.8650   -34.3600   -10.7480 c6         1 YNV      -0.060400
      6 C30        -14.3350   -37.1210    -8.1660 c5         1 YNV      -0.065900
      7 C36        -18.0070   -32.6530   -12.5100 c6         1 YNV      -0.013300
      8 C40        -19.3620   -30.7640    -9.2520 c5         1 YNV      -0.070200
      9 C42        -20.4970   -29.4140    -7.5590 c5         1 YNV      -0.115900
     10 C45        -20.8880   -29.0920   -10.6240 c3         1 YNV      -0.071100
     11 C01        -16.1100   -34.1160    -6.3040 c3         1 YNV      -0.047700
     12 C02        -17.0890   -35.0860    -6.9550 c2         1 YNV      -0.214200
     13 C03        -17.8720   -34.8500    -8.0270 c2         1 YNV      -0.214200
     14 C04        -17.9160   -33.5580    -8.8330 c3         1 YNV      -0.047700
     15 C05        -13.7860   -30.5830    -8.1860 c6         1 YNV      -0.065400
     16 C06        -13.5820   -29.3760    -7.2410 c6         1 YNV      -0.181400
     17 C07        -14.2850   -29.5970    -5.9040 c          1 YNV       0.578300
     18 C09        -14.2360   -30.9800    -5.3720 ce         1 YNV      -0.326700
     19 C11        -13.8120   -33.4470    -5.4630 c6         1 YNV      -0.054200
     20 C12        -14.5770   -34.4750    -6.3280 c6         1 YNV      -0.044200
     21 C14        -13.9230   -33.1290    -8.4460 c6         1 YNV      -0.047700
     22 C15        -16.6220   -32.4630   -13.2280 c6         1 YNV      -0.065400
     23 C16        -16.2410   -33.6420   -14.1530 c6         1 YNV      -0.181400
     24 C17        -16.2740   -34.9690   -13.4020 c          1 YNV       0.578300
     25 C19        -17.3480   -35.1150   -12.3920 ce         1 YNV      -0.326700
     26 C21        -19.2150   -34.3400   -10.9180 c6         1 YNV      -0.054200
     27 C22        -19.1700   -33.3310    -9.7450 c6         1 YNV      -0.044200
     28 C24        -18.1280   -31.5730   -11.3520 c6         1 YNV      -0.047700
     29 C25        -13.3340   -31.9510    -7.5570 c6         1 YNV      -0.013300
     30 C26        -13.3100   -33.1830    -9.8950 c6         1 YNV      -0.073400
     31 C28        -13.6680   -35.7270   -10.0350 c5         1 YNV      -0.040500
     32 C29        -14.3950   -35.6470    -8.6650 c5         1 YNV      -0.070200
     33 C31        -14.5120   -37.9560    -9.4810 c5         1 YNV      -0.115900
     34 C32        -14.5260   -36.8940   -10.6290 c5         1 YNV       0.173800
     35 C34        -12.1330   -36.0620    -9.9760 c3         1 YNV      -0.071100
     36 C35        -11.7700   -32.0010    -7.4760 c3         1 YNV      -0.081100
     37 C37        -18.2140   -30.0970   -11.8960 c6         1 YNV      -0.073400
     38 C38        -18.3460   -29.0320   -10.7700 c6         1 YNV      -0.060400
     39 C39        -19.5510   -29.3300    -9.8320 c5         1 YNV      -0.040500
     40 C41        -20.4850   -30.8510    -8.1820 c5         1 YNV      -0.065900
     41 C43        -19.5060   -28.5490    -8.4730 c5         1 YNV       0.173800
     42 O08        -14.8430   -28.6880    -5.3050 o          1 YNV      -0.538600
     43 O18        -15.4610   -35.8570   -13.6190 o          1 YNV      -0.538600
     44 O33        -14.0230   -37.4130   -11.8570 oh         1 YNV      -0.655000
     45 O44        -19.8240   -27.1370    -8.6300 oh         1 YNV      -0.655000
     46 H2         -12.8100   -34.7640    -7.5310 hc         1 YNV       0.052700
     47 H3         -20.2440   -31.8530   -10.8890 hc         1 YNV       0.052700
     48 H4         -13.3840   -34.3690   -11.7350 hc         1 YNV       0.043950
     49 H5         -14.9340   -34.1880   -10.9300 hc         1 YNV       0.043950
     50 H6         -15.1240   -37.3370    -7.4370 hc         1 YNV       0.043700
     51 H7         -13.3810   -37.3450    -7.6750 hc         1 YNV       0.043700
     52 H8         -18.3890   -30.7970    -8.7500 hc         1 YNV       0.047700
     53 H9         -20.1620   -29.4200    -6.5160 hc         1 YNV       0.050950
     54 H10        -21.5110   -28.9990    -7.5610 hc         1 YNV       0.050950
     55 H11        -21.7780   -29.1960    -9.9940 hc         1 YNV       0.035867
     56 H12        -20.9180   -28.0790   -11.0420 hc         1 YNV       0.035867
     57 H13        -21.0120   -29.7860   -11.4610 hc         1 YNV       0.035867
     58 H14        -16.2480   -33.1080    -6.7040 hc         1 YNV       0.048950
     59 H15        -16.4170   -34.0220    -5.2560 hc         1 YNV       0.048950
     60 H16        -17.1390   -36.0560    -6.4570 ha         1 YNV       0.167500
     61 H17        -18.5420   -35.6350    -8.3780 ha         1 YNV       0.167500
     62 H18        -17.0120   -33.5080    -9.4490 hc         1 YNV       0.048950
     63 H19        -17.8380   -32.7340    -8.1220 hc         1 YNV       0.048950
     64 H20        -13.2500   -30.3930    -9.1250 hc         1 YNV       0.048950
     65 H21        -14.8520   -30.6290    -8.4490 hc         1 YNV       0.048950
     66 H22        -12.5100   -29.3020    -7.0240 hc         1 YNV       0.070200
     67 H23        -13.9020   -28.4230    -7.6830 hc         1 YNV       0.070200
     68 H24        -14.6030   -31.0930    -4.3550 ha         1 YNV       0.194500
     69 H26        -14.2390   -33.4190    -4.4520 hc         1 YNV       0.055700
     70 H27        -12.7710   -33.7720    -5.3290 hc         1 YNV       0.055700
     71 H28        -14.4830   -35.4570    -5.8450 hc         1 YNV       0.056200
     72 H29        -14.9870   -32.9110    -8.5940 hc         1 YNV       0.046700
     73 H30        -15.8280   -32.3500   -12.4760 hc         1 YNV       0.048950
     74 H31        -16.6140   -31.5360   -13.8180 hc         1 YNV       0.048950
     75 H32        -15.2660   -33.5100   -14.6410 hc         1 YNV       0.070200
     76 H33        -17.0020   -33.7080   -14.9390 hc         1 YNV       0.070200
     77 H34        -17.4590   -36.1140   -11.9790 ha         1 YNV       0.194500
     78 H35        -20.1910   -34.2740   -11.4170 hc         1 YNV       0.055700
     79 H36        -19.1580   -35.3690   -10.5410 hc         1 YNV       0.055700
     80 H37        -20.0450   -33.5170    -9.1070 hc         1 YNV       0.056200
     81 H38        -17.1980   -31.6220   -10.7700 hc         1 YNV       0.046700
     82 H39        -12.2170   -33.2510    -9.8550 hc         1 YNV       0.041450
     83 H40        -13.5290   -32.2490   -10.4290 hc         1 YNV       0.041450
     84 H41        -15.4320   -35.3690    -8.8580 hc         1 YNV       0.047700
     85 H42        -15.4400   -38.5360    -9.4730 hc         1 YNV       0.050950
     86 H43        -13.6930   -38.6750    -9.5980 hc         1 YNV       0.050950
     87 H44        -15.5580   -36.5510   -10.7820 h1         1 YNV       0.025200
     88 H45        -11.5680   -35.3480    -9.3680 hc         1 YNV       0.035867
     89 H46        -11.9290   -37.0530    -9.5580 hc         1 YNV       0.035867
     90 H47        -11.6920   -36.0480   -10.9800 hc         1 YNV       0.035867
     91 H48        -11.3840   -31.3090    -6.7190 hc         1 YNV       0.038867
     92 H49        -11.4000   -32.9960    -7.2090 hc         1 YNV       0.038867
     93 H50        -11.3010   -31.7220    -8.4270 hc         1 YNV       0.038867
     94 H51        -17.3160   -29.8570   -12.4790 hc         1 YNV       0.041450
     95 H52        -19.0560   -29.9870   -12.5900 hc         1 YNV       0.041450
     96 H53        -17.4160   -29.0170   -10.1860 hc         1 YNV       0.043950
     97 H54        -18.4440   -28.0300   -11.2100 hc         1 YNV       0.043950
     98 H55        -21.4540   -31.1040    -8.6280 hc         1 YNV       0.043700
     99 H56        -20.2730   -31.6200    -7.4300 hc         1 YNV       0.043700
    100 H57        -18.4920   -28.6280    -8.0540 h1         1 YNV       0.025200
    101 H61        -14.4480   -36.8720   -12.5700 ho         1 YNV       0.451500
    102 H62        -19.4230   -26.6630    -7.8680 ho         1 YNV       0.451500
    103 C46        -19.1640   -32.5210   -13.5590 c3         1 YNV      -0.081100
    104 H58        -20.1500   -32.4720   -13.0850 hc         1 YNV       0.038867
    105 H59        -19.0530   -31.6260   -14.1810 hc         1 YNV       0.038867
    106 H60        -19.1880   -33.3790   -14.2420 hc         1 YNV       0.038867
@<TRIPOS>BOND
     1     1    18 2   
     2     1    19 1   
     3     1    29 1   
     4     2    20 1   
     5     2    21 1   
     6     2    32 1   
     7     2    46 1   
     8     3     7 1   
     9     3    25 2   
    10     3    26 1   
    11     4     8 1   
    12     4    27 1   
    13     4    28 1   
    14     4    47 1   
    15     5    30 1   
    16     5    31 1   
    17     5    48 1   
    18     5    49 1   
    19     6    32 1   
    20     6    33 1   
    21     6    50 1   
    22     6    51 1   
    23     7    22 1   
    24     7    28 1   
    25     7   103 1   
    26     8    39 1   
    27     8    40 1   
    28     8    52 1   
    29     9    40 1   
    30     9    41 1   
    31     9    53 1   
    32     9    54 1   
    33    10    39 1   
    34    10    55 1   
    35    10    56 1   
    36    10    57 1   
    37    11    12 1   
    38    11    20 1   
    39    11    58 1   
    40    11    59 1   
    41    12    13 2   
    42    12    60 1   
    43    13    14 1   
    44    13    61 1   
    45    14    27 1   
    46    14    62 1   
    47    14    63 1   
    48    15    16 1   
    49    15    29 1   
    50    15    64 1   
    51    15    65 1   
    52    16    17 1   
    53    16    66 1   
    54    16    67 1   
    55    17    18 1   
    56    17    42 2   
    57    18    68 1   
    58    19    20 1   
    59    19    69 1   
    60    19    70 1   
    61    20    71 1   
    62    21    29 1   
    63    21    30 1   
    64    21    72 1   
    65    22    23 1   
    66    22    73 1   
    67    22    74 1   
    68    23    24 1   
    69    23    75 1   
    70    23    76 1   
    71    24    25 1   
    72    24    43 2   
    73    25    77 1   
    74    26    27 1   
    75    26    78 1   
    76    26    79 1   
    77    27    80 1   
    78    28    37 1   
    79    28    81 1   
    80    29    36 1   
    81    30    82 1   
    82    30    83 1   
    83    31    32 1   
    84    31    34 1   
    85    31    35 1   
    86    32    84 1   
    87    33    34 1   
    88    33    85 1   
    89    33    86 1   
    90    34    44 1   
    91    34    87 1   
    92    35    88 1   
    93    35    89 1   
    94    35    90 1   
    95    36    91 1   
    96    36    92 1   
    97    36    93 1   
    98    37    38 1   
    99    37    94 1   
   100    37    95 1   
   101    38    39 1   
   102    38    96 1   
   103    38    97 1   
   104    39    41 1   
   105    40    98 1   
   106    40    99 1   
   107    41    45 1   
   108    41   100 1   
   109    44   101 1   
   110    45   102 1   
   111   103   104 1   
   112   103   105 1   
   113   103   106 1   
@<TRIPOS>SUBSTRUCTURE
     1 YNV         1 TEMP              0 ****  ****    0 ROOT
