@<TRIPOS>MOLECULE
YNW
   45    48     1     0     0
SMALL
abcg2


@<TRIPOS>ATOM
      1 C10        -14.3790    15.6440   -16.4380 ca         1 YNW      -0.091300
      2 C11        -13.0840    15.7630   -17.1850 c3         1 YNW      -0.038800
      3 C13        -16.7600    15.2540   -16.4180 ca         1 YNW       0.125000
      4 C15        -19.1880    15.9980   -14.5010 ca         1 YNW      -0.122000
      5 C16        -20.2950    15.7920   -13.7060 ca         1 YNW      -0.113200
      6 C18        -22.2560    15.8260   -12.7180 cc         1 YNW       0.593700
      7 C20        -20.3610    14.8340   -12.6700 ca         1 YNW       0.138400
      8 C22        -24.3590    16.9560   -13.3230 c3         1 YNW       0.268100
      9 C23        -25.5810    17.4660   -12.6090 ca         1 YNW      -0.097300
     10 C24        -26.8490    17.0290   -12.9720 ca         1 YNW      -0.090000
     11 C25        -27.9770    17.5010   -12.3090 ca         1 YNW      -0.117500
     12 C26        -27.8420    18.4120   -11.2720 ca         1 YNW      -0.109000
     13 C27        -26.5760    18.8520   -10.9010 ca         1 YNW      -0.117500
     14 C28        -25.4530    18.3800   -11.5640 ca         1 YNW      -0.090000
     15 C12        -15.5680    15.3940   -17.1130 ca         1 YNW      -0.115000
     16 C4         -19.2340    14.0390   -12.4100 ca         1 YNW      -0.075600
     17 C5         -18.1180    14.2580   -13.2160 ca         1 YNW      -0.105000
     18 C6         -18.0730    15.2000   -14.2480 cp         1 YNW      -0.070000
     19 C7         -16.8280    15.3590   -15.0280 cp         1 YNW       0.017000
     20 C8         -15.6220    15.6080   -14.3690 ca         1 YNW      -0.092000
     21 C9         -14.4260    15.7490   -15.0500 ca         1 YNW      -0.113000
     22 N17        -21.5270    16.4060   -13.7070 na         1 YNW      -0.360600
     23 N19        -21.6040    14.8830   -12.0820 nd         1 YNW      -0.566100
     24 O1         -18.0670    12.3940   -11.1830 o          1 YNW      -0.707000
     25 O3         -20.2030    12.7530   -10.6720 o          1 YNW      -0.707000
     26 CL14       -18.1840    14.8900   -17.3450 cl         1 YNW      -0.217000
     27 H34        -12.5910    14.7920   -17.2630 hc         1 YNW       0.034700
     28 H35        -13.2360    16.1310   -18.1990 hc         1 YNW       0.034700
     29 H33        -12.3930    16.4360   -16.6790 hc         1 YNW       0.034700
     30 H37        -19.1830    16.7540   -15.2760 ha         1 YNW       0.097000
     31 H41        -23.7990    17.8090   -13.7130 h1         1 YNW       0.033700
     32 H40        -24.6570    16.3460   -14.1830 h1         1 YNW       0.033700
     33 H42        -26.9600    16.3150   -13.7790 ha         1 YNW       0.119500
     34 H43        -28.9590    17.1520   -12.6020 ha         1 YNW       0.108500
     35 H44        -28.7180    18.7800   -10.7540 ha         1 YNW       0.106000
     36 H45        -26.4640    19.5660   -10.0950 ha         1 YNW       0.108500
     37 H46        -24.4690    18.7270   -11.2730 ha         1 YNW       0.119500
     38 H36        -15.5650    15.3000   -18.1920 ha         1 YNW       0.113000
     39 H30        -17.2430    13.6480   -13.0340 ha         1 YNW       0.137000
     40 H31        -15.6360    15.7070   -13.2900 ha         1 YNW       0.132000
     41 H32        -13.5180    15.9510   -14.4950 ha         1 YNW       0.106000
     42 H38        -21.8120    17.1510   -14.3220 hn         1 YNW       0.333000
     43 H39        -23.9910    15.5700   -11.7960 hn         1 YNW       0.500000
     44 C2         -19.1660    12.9680   -11.3240 c          1 YNW       0.713600
     45 N21        -23.5130    16.2200   -12.4020 nu         1 YNW      -0.890400
@<TRIPOS>BOND
     1     1     2 1   
     2     1    15 ar  
     3     1    21 ar  
     4     2    27 1   
     5     2    28 1   
     6     2    29 1   
     7     3    15 ar  
     8     3    19 ar  
     9     3    26 1   
    10     4     5 ar  
    11     4    18 ar  
    12     4    30 1   
    13     5     7 ar  
    14     5    22 1   
    15     6    22 1   
    16     6    23 2   
    17     6    45 1   
    18     7    16 ar  
    19     7    23 1   
    20     8     9 1   
    21     8    31 1   
    22     8    32 1   
    23     8    45 1   
    24     9    10 ar  
    25     9    14 ar  
    26    10    11 ar  
    27    10    33 1   
    28    11    12 ar  
    29    11    34 1   
    30    12    13 ar  
    31    12    35 1   
    32    13    14 ar  
    33    13    36 1   
    34    14    37 1   
    35    15    38 1   
    36    16    17 ar  
    37    16    44 1   
    38    17    18 ar  
    39    17    39 1   
    40    18    19 1   
    41    19    20 ar  
    42    20    21 ar  
    43    20    40 1   
    44    21    41 1   
    45    22    42 1   
    46    24    44 1   
    47    25    44 1   
    48    43    45 1   
@<TRIPOS>SUBSTRUCTURE
     1 YNW         1 TEMP              0 ****  ****    0 ROOT
