@<TRIPOS>MOLECULE
YNW
   45    48     1     0     0
SMALL
No Charge or Current Charge


@<TRIPOS>ATOM
      1 C10        -14.3180    15.4530   -16.5460 ca         1 YNW      -0.091300
      2 C11        -13.0170    15.5540   -17.3300 c3         1 YNW      -0.038800
      3 C13        -16.7460    15.1760   -16.5020 ca         1 YNW       0.125000
      4 C15        -19.1130    16.0150   -14.5290 ca         1 YNW      -0.122000
      5 C16        -20.2460    15.8890   -13.7220 ca         1 YNW      -0.113200
      6 C18        -22.1860    16.0810   -12.7260 cc         1 YNW       0.593700
      7 C20        -20.3440    14.9890   -12.6920 ca         1 YNW       0.138400
      8 C22        -24.2040    17.5350   -13.1200 c3         1 YNW       0.268100
      9 C23        -25.5780    17.6750   -12.4810 ca         1 YNW      -0.097300
     10 C24        -26.6580    16.8920   -12.9370 ca         1 YNW      -0.090000
     11 C25        -27.9270    17.0210   -12.3460 ca         1 YNW      -0.117500
     12 C26        -28.1250    17.9330   -11.2960 ca         1 YNW      -0.109000
     13 C27        -27.0530    18.7150   -10.8360 ca         1 YNW      -0.117500
     14 C28        -25.7830    18.5870   -11.4260 ca         1 YNW      -0.090000
     15 C12        -15.5400    15.2740   -17.2190 ca         1 YNW      -0.115000
     16 C4         -19.2700    14.1270   -12.3980 ca         1 YNW      -0.075600
     17 C5         -18.1010    14.2370   -13.1950 ca         1 YNW      -0.105000
     18 C6         -18.0060    15.1650   -14.2730 cp         1 YNW      -0.070000
     19 C7         -16.7520    15.2590   -15.0820 cp         1 YNW       0.017000
     20 C8         -15.5100    15.4260   -14.4220 ca         1 YNW      -0.092000
     21 C9         -14.3090    15.5240   -15.1430 ca         1 YNW      -0.113000
     22 N17        -21.4150    16.5850   -13.7510 na         1 YNW      -0.360600
     23 N19        -21.5780    15.1100   -12.0460 nd         1 YNW      -0.566100
     24 O1         -18.3900    13.0840   -10.4940 o          1 YNW      -0.707000
     25 O3         -20.2700    12.3400   -11.2340 o          1 YNW      -0.707000
     26 Cl14       -18.2230    14.8990   -17.4290 cl         1 YNW      -0.217000
     27 H34        -12.5770    14.5620   -17.4840 hc         1 YNW       0.034700
     28 H35        -13.1790    16.0070   -18.3150 hc         1 YNW       0.034700
     29 H33        -12.2790    16.1700   -16.8020 hc         1 YNW       0.034700
     30 H37        -19.0770    16.7560   -15.3240 ha         1 YNW       0.097000
     31 H41        -23.6800    18.5000   -13.0790 h1         1 YNW       0.033700
     32 H40        -24.3170    17.2600   -14.1770 h1         1 YNW       0.033700
     33 H42        -26.5120    16.1820   -13.7490 ha         1 YNW       0.119500
     34 H43        -28.7570    16.4140   -12.7030 ha         1 YNW       0.108500
     35 H44        -29.1080    18.0330   -10.8390 ha         1 YNW       0.106000
     36 H45        -27.2050    19.4210   -10.0220 ha         1 YNW       0.108500
     37 H46        -24.9570    19.1940   -11.0620 ha         1 YNW       0.119500
     38 H36        -15.5560    15.2020   -18.3040 ha         1 YNW       0.113000
     39 H30        -17.2580    13.5830   -12.9840 ha         1 YNW       0.137000
     40 H31        -15.4850    15.4910   -13.3360 ha         1 YNW       0.132000
     41 H32        -13.3710    15.6560   -14.6080 ha         1 YNW       0.106000
     42 H38        -21.6810    17.3240   -14.3830 hn         1 YNW       0.333000
     43 H39        -23.8630    16.0190   -11.6440 hn         1 YNW       0.500000
     44 C2         -19.3350    13.1290   -11.2710 c          1 YNW       0.713600
     45 N21        -23.4280    16.5150   -12.4180 nu         1 YNW      -0.890400
@<TRIPOS>BOND
     1     1     2 1   
     2     1    15 ar  
     3     1    21 ar  
     4     2    27 1   
     5     2    28 1   
     6     2    29 1   
     7     3    15 ar  
     8     3    19 ar  
     9     3    26 1   
    10     4     5 ar  
    11     4    18 ar  
    12     4    30 1   
    13     5     7 ar  
    14     5    22 1   
    15     6    22 1   
    16     6    23 2   
    17     6    45 1   
    18     7    16 ar  
    19     7    23 1   
    20     8     9 1   
    21     8    31 1   
    22     8    32 1   
    23     8    45 1   
    24     9    10 ar  
    25     9    14 ar  
    26    10    11 ar  
    27    10    33 1   
    28    11    12 ar  
    29    11    34 1   
    30    12    13 ar  
    31    12    35 1   
    32    13    14 ar  
    33    13    36 1   
    34    14    37 1   
    35    15    38 1   
    36    16    17 ar  
    37    16    44 1   
    38    17    18 ar  
    39    17    39 1   
    40    18    19 1   
    41    19    20 ar  
    42    20    21 ar  
    43    20    40 1   
    44    21    41 1   
    45    22    42 1   
    46    24    44 1   
    47    25    44 1   
    48    43    45 1   
@<TRIPOS>SUBSTRUCTURE
     1 YNW         1 TEMP              0 ****  ****    0 ROOT
