@<TRIPOS>MOLECULE
YNY
   73    79     1     0     0
SMALL
abcg2


@<TRIPOS>ATOM
      1 C20        -36.8710    -6.6300    15.6610 cc         1 YNY      -0.097000
      2 C21        -36.1890    -5.2050    18.6700 c5         1 YNY       0.102000
      3 C23        -34.4840    -3.5130    17.9060 c          1 YNY       0.654300
      4 C25        -35.5280    -2.7220    17.2280 cc         1 YNY      -0.121300
      5 C18        -36.7040    -5.1520    14.2080 cd         1 YNY       0.538200
      6 C16        -38.0130    -6.6510    14.8530 cc         1 YNY      -0.111600
      7 C10        -35.5900    -7.4670    17.5970 c3         1 YNY       0.062600
      8 C26        -36.8460    -2.4570    17.5150 cd         1 YNY      -0.205200
      9 C27        -37.3160    -1.5570    16.5210 ca         1 YNY      -0.073800
     10 C14        -39.0150    -7.5880    15.1310 cd         1 YNY       0.736900
     11 C28        -38.5710    -0.9750    16.2670 ca         1 YNY      -0.153000
     12 N17        -37.8810    -5.6770    13.9110 nc         1 YNY      -0.589100
     13 O24        -33.3070    -3.2170    17.7470 o          1 YNY      -0.592100
     14 C01        -33.6940   -12.6880    22.6780 c3         1 YNY       0.151900
     15 C05        -33.1000    -9.2640    21.5840 cc         1 YNY      -0.122300
     16 C06        -34.1670    -8.8560    20.8260 cd         1 YNY      -0.178200
     17 C07        -33.8960    -7.5190    20.4330 ca         1 YNY      -0.044800
     18 C08        -34.5820    -6.5770    19.6650 ca         1 YNY      -0.148300
     19 C09        -35.8600    -6.6850    18.8890 c5         1 YNY      -0.033400
     20 C12        -37.7530    -8.3650    16.8900 cc         1 YNY       0.587400
     21 C29        -38.7070    -0.1690    15.1590 ca         1 YNY       0.102100
     22 C31        -41.0080     0.2060    15.5620 c3         1 YNY       0.146900
     23 C32        -37.5960     0.0980    14.3040 ca         1 YNY       0.091100
     24 C34        -37.7820     2.2710    13.4290 c3         1 YNY       0.152900
     25 C35        -36.3580    -0.4650    14.5500 ca         1 YNY       0.101100
     26 C37        -34.3620     0.7070    14.1860 c3         1 YNY       0.143900
     27 C38        -36.2320    -1.3040    15.6660 ca         1 YNY      -0.079200
     28 C40        -34.0110    -5.3400    19.4680 ca         1 YNY      -0.004000
     29 C41        -32.7750    -4.9810    20.0270 ca         1 YNY      -0.122000
     30 C42        -32.0780    -5.8980    20.7930 ca         1 YNY       0.151100
     31 C44        -32.6430    -7.1720    20.9890 ca         1 YNY      -0.121200
     32 N11        -36.7430    -7.5040    16.7030 na         1 YNY      -0.152500
     33 N13        -38.8360    -8.4370    16.1700 nd         1 YNY      -0.813000
     34 N15        -40.1350    -7.6950    14.4270 nv         1 YNY      -1.038900
     35 N19        -36.0330    -5.6840    15.2590 nd         1 YNY      -0.438300
     36 N22        -34.8810    -4.5400    18.6970 n          1 YNY      -0.209400
     37 N39        -35.1620    -2.0090    16.1190 na         1 YNY      -0.168700
     38 N45        -32.1860    -8.2550    21.6800 na         1 YNY      -0.192700
     39 O02        -33.8270   -11.4010    22.0730 os         1 YNY      -0.426100
     40 O04        -31.8390   -10.7610    22.8930 o          1 YNY      -0.495000
     41 O30        -39.8570     0.4210    14.7750 os         1 YNY      -0.331100
     42 O33        -37.7710     0.8680    13.2000 os         1 YNY      -0.333100
     43 O36        -35.3090    -0.2480    13.7180 os         1 YNY      -0.340100
     44 O43        -30.8850    -5.5190    21.2940 oh         1 YNY      -0.525100
     45 H211       -36.8050    -4.8430    19.4960 h1         1 YNY       0.074200
     46 H212       -36.7090    -5.0010    17.7400 h1         1 YNY       0.074200
     47 H181       -36.2830    -4.3300    13.6430 h5         1 YNY       0.058800
     48 H101       -35.3130    -8.4930    17.8380 h1         1 YNY       0.087200
     49 H102       -34.7650    -7.0230    17.0420 h1         1 YNY       0.087200
     50 H261       -37.4160    -2.8390    18.3460 ha         1 YNY       0.202000
     51 H281       -39.4020    -1.1900    16.9240 ha         1 YNY       0.122000
     52 H013       -34.5930   -13.2350    22.4100 h1         1 YNY       0.053033
     53 H011       -32.8210   -13.2170    22.2970 h1         1 YNY       0.053033
     54 H012       -33.6250   -12.6120    23.7620 h1         1 YNY       0.053033
     55 H061       -35.0410    -9.4360    20.5780 ha         1 YNY       0.214000
     56 H091       -36.6620    -7.1740    19.4480 hc         1 YNY       0.068700
     57 H121       -37.6330    -9.0570    17.7160 h5         1 YNY       0.047100
     58 H311       -41.8140     0.7650    15.0930 h1         1 YNY       0.038700
     59 H312       -41.2870    -0.8510    15.5980 h1         1 YNY       0.038700
     60 H313       -40.8780     0.5680    16.5860 h1         1 YNY       0.038700
     61 H343       -37.8860     2.7490    12.4570 h1         1 YNY       0.033700
     62 H341       -38.6160     2.5810    14.0610 h1         1 YNY       0.033700
     63 H342       -36.8510     2.6110    13.8890 h1         1 YNY       0.033700
     64 H372       -33.5740     0.7670    13.4390 h1         1 YNY       0.036367
     65 H371       -34.8120     1.6960    14.3050 h1         1 YNY       0.036367
     66 H373       -33.9180     0.4130    15.1410 h1         1 YNY       0.036367
     67 H411       -32.3530    -3.9990    19.8820 ha         1 YNY       0.161000
     68 H151       -40.8380    -8.3680    14.6820 hn         1 YNY       0.514000
     69 H152       -40.3230    -7.0720    13.6600 hn         1 YNY       0.514000
     70 H391       -34.2480    -2.0460    15.6950 hn         1 YNY       0.376000
     71 H451       -31.3140    -8.3390    22.1790 hn         1 YNY       0.366000
     72 H431       -30.5580    -6.1230    21.9680 ho         1 YNY       0.462000
     73 C03        -32.8400   -10.5410    22.2540 c          1 YNY       0.625300
@<TRIPOS>BOND
     1     1     6 1   
     2     1    32 1   
     3     1    35 2   
     4     2    19 1   
     5     2    36 1   
     6     2    45 1   
     7     2    46 1   
     8     3     4 1   
     9     3    13 2   
    10     3    36 1   
    11     4     8 2   
    12     4    37 1   
    13     5    12 2   
    14     5    35 1   
    15     5    47 1   
    16     6    10 2   
    17     6    12 1   
    18     7    19 1   
    19     7    32 1   
    20     7    48 1   
    21     7    49 1   
    22     8     9 1   
    23     8    50 1   
    24     9    11 ar  
    25     9    27 ar  
    26    10    33 1   
    27    10    34 1   
    28    11    21 ar  
    29    11    51 1   
    30    14    39 1   
    31    14    52 1   
    32    14    53 1   
    33    14    54 1   
    34    15    16 2   
    35    15    38 1   
    36    15    73 1   
    37    16    17 1   
    38    16    55 1   
    39    17    18 ar  
    40    17    31 ar  
    41    18    19 1   
    42    18    28 ar  
    43    19    56 1   
    44    20    32 1   
    45    20    33 2   
    46    20    57 1   
    47    21    23 ar  
    48    21    41 1   
    49    22    41 1   
    50    22    58 1   
    51    22    59 1   
    52    22    60 1   
    53    23    25 ar  
    54    23    42 1   
    55    24    42 1   
    56    24    61 1   
    57    24    62 1   
    58    24    63 1   
    59    25    27 ar  
    60    25    43 1   
    61    26    43 1   
    62    26    64 1   
    63    26    65 1   
    64    26    66 1   
    65    27    37 1   
    66    28    29 ar  
    67    28    36 1   
    68    29    30 ar  
    69    29    67 1   
    70    30    31 ar  
    71    30    44 1   
    72    31    38 1   
    73    34    68 1   
    74    34    69 1   
    75    37    70 1   
    76    38    71 1   
    77    39    73 1   
    78    40    73 2   
    79    44    72 1   
@<TRIPOS>SUBSTRUCTURE
     1 YNY         1 TEMP              0 ****  ****    0 ROOT
