@<TRIPOS>MOLECULE
YNY
   73    79     1     0     0
SMALL
No Charge or Current Charge


@<TRIPOS>ATOM
      1 C20        -37.1310    -7.2580    15.7330 cc         1 YNY      -0.097000
      2 C21        -35.8290    -5.0870    18.3190 c5         1 YNY       0.102000
      3 C23        -34.0800    -3.2940    17.7690 c          1 YNY       0.654300
      4 C25        -35.0770    -2.4260    17.0450 cc         1 YNY      -0.121300
      5 C18        -36.9680    -6.2850    13.8930 cd         1 YNY       0.538200
      6 C16        -38.3180    -7.4030    15.1000 cc         1 YNY      -0.111600
      7 C10        -35.6240    -7.6440    17.7350 c3         1 YNY       0.062600
      8 C26        -36.4780    -2.3960    17.0730 cd         1 YNY      -0.205200
      9 C27        -36.9880    -1.3580    16.2200 ca         1 YNY      -0.073800
     10 C14        -39.3650    -8.0890    15.6740 cd         1 YNY       0.736900
     11 C28        -38.2960    -0.9810    15.9130 ca         1 YNY      -0.153000
     12 N17        -38.2300    -6.7710    13.8950 nc         1 YNY      -0.589100
     13 O24        -32.8940    -2.9860    17.7090 o          1 YNY      -0.592100
     14 C01        -34.3650   -12.6710    22.4570 c3         1 YNY       0.151900
     15 C05        -33.0230    -9.3040    21.5470 cc         1 YNY      -0.122300
     16 C06        -34.0220    -8.7370    20.7630 cd         1 YNY      -0.178200
     17 C07        -33.6410    -7.4190    20.3350 ca         1 YNY      -0.044800
     18 C08        -34.2890    -6.4640    19.5460 ca         1 YNY      -0.148300
     19 C09        -35.6310    -6.5710    18.8520 c5         1 YNY      -0.033400
     20 C12        -38.0140    -8.4750    17.5360 cc         1 YNY       0.587400
     21 C29        -38.4940     0.0920    15.0010 ca         1 YNY       0.102100
     22 C31        -40.9580    -0.1460    15.2050 c3         1 YNY       0.146900
     23 C32        -37.3490     0.7600    14.4330 ca         1 YNY       0.091100
     24 C34        -38.6360     2.4000    13.0290 c3         1 YNY       0.152900
     25 C35        -36.0420     0.3410    14.8030 ca         1 YNY       0.101100
     26 C37        -34.0480     1.7060    15.1400 c3         1 YNY       0.143900
     27 C38        -35.9030    -0.7350    15.6950 ca         1 YNY      -0.079200
     28 C40        -33.6580    -5.2550    19.3220 ca         1 YNY      -0.004000
     29 C41        -32.3670    -4.9880    19.8440 ca         1 YNY      -0.122000
     30 C42        -31.7260    -5.9680    20.6350 ca         1 YNY       0.151100
     31 C44        -32.3990    -7.1880    20.8680 ca         1 YNY      -0.121200
     32 N11        -36.8990    -7.7790    16.9930 na         1 YNY      -0.152500
     33 N13        -39.2170    -8.6290    16.9240 nd         1 YNY      -0.813000
     34 N15        -40.5760    -8.2880    15.1610 nv         1 YNY      -1.038900
     35 N19        -36.2370    -6.5840    15.0610 nd         1 YNY      -0.438300
     36 N22        -34.4880    -4.4640    18.4820 n          1 YNY      -0.209400
     37 N39        -34.7570    -1.3570    16.1720 na         1 YNY      -0.168700
     38 N45        -32.0120    -8.3140    21.5990 na         1 YNY      -0.192700
     39 O02        -34.2240   -11.3500    21.9010 os         1 YNY      -0.426100
     40 O04        -32.1570   -11.1010    22.8500 o          1 YNY      -0.495000
     41 O30        -39.7810     0.4850    14.6690 os         1 YNY      -0.331100
     42 O33        -37.4190     1.8240    13.5320 os         1 YNY      -0.333100
     43 O36        -34.9330     0.9720    14.2760 os         1 YNY      -0.340100
     44 O43        -30.4870    -5.7130    21.1510 oh         1 YNY      -0.525100
     45 H211       -36.5610    -4.5750    18.9550 h1         1 YNY       0.074200
     46 H212       -36.1750    -5.0630    17.2790 h1         1 YNY       0.074200
     47 H181       -36.5360    -5.7140    13.0780 h5         1 YNY       0.058800
     48 H101       -35.3840    -8.6170    18.1810 h1         1 YNY       0.087200
     49 H102       -34.8130    -7.4150    17.0320 h1         1 YNY       0.087200
     50 H261       -37.1330    -3.0070    17.6800 ha         1 YNY       0.202000
     51 H281       -39.1210    -1.5200    16.3680 ha         1 YNY       0.122000
     52 H013       -35.3290   -13.1060    22.1660 h1         1 YNY       0.053033
     53 H011       -33.5690   -13.3350    22.0950 h1         1 YNY       0.053033
     54 H012       -34.3220   -12.6410    23.5530 h1         1 YNY       0.053033
     55 H061       -34.9640    -9.2240    20.5220 ha         1 YNY       0.214000
     56 H091       -36.4250    -6.8370    19.5600 hc         1 YNY       0.068700
     57 H121       -37.8640    -8.8960    18.5230 h5         1 YNY       0.047100
     58 H311       -41.8600     0.3300    14.8010 h1         1 YNY       0.038700
     59 H312       -40.9880    -1.2100    14.9370 h1         1 YNY       0.038700
     60 H313       -40.9870    -0.0540    16.2980 h1         1 YNY       0.038700
     61 H343       -38.4060     3.2160    12.3330 h1         1 YNY       0.033700
     62 H341       -39.2270     1.6530    12.4840 h1         1 YNY       0.033700
     63 H342       -39.2410     2.8160    13.8440 h1         1 YNY       0.033700
     64 H372       -33.2430     2.1680    14.5550 h1         1 YNY       0.036367
     65 H371       -34.5940     2.5030    15.6600 h1         1 YNY       0.036367
     66 H373       -33.5900     1.0540    15.8930 h1         1 YNY       0.036367
     67 H411       -31.8660    -4.0430    19.6650 ha         1 YNY       0.161000
     68 H151       -41.2850    -8.4900    15.8530 hn         1 YNY       0.514000
     69 H152       -40.8380    -7.6450    14.4240 hn         1 YNY       0.514000
     70 H391       -33.8100    -1.0940    15.9160 hn         1 YNY       0.376000
     71 H451       -31.1380    -8.4260    22.1030 hn         1 YNY       0.366000
     72 H431       -30.1920    -6.4900    21.6670 ho         1 YNY       0.462000
     73 C03        -33.0700   -10.6540    22.1650 c          1 YNY       0.625300
@<TRIPOS>BOND
     1     1     6 1   
     2     1    32 1   
     3     1    35 2   
     4     2    19 1   
     5     2    36 1   
     6     2    45 1   
     7     2    46 1   
     8     3     4 1   
     9     3    13 2   
    10     3    36 1   
    11     4     8 2   
    12     4    37 1   
    13     5    12 2   
    14     5    35 1   
    15     5    47 1   
    16     6    10 2   
    17     6    12 1   
    18     7    19 1   
    19     7    32 1   
    20     7    48 1   
    21     7    49 1   
    22     8     9 1   
    23     8    50 1   
    24     9    11 ar  
    25     9    27 ar  
    26    10    33 1   
    27    10    34 1   
    28    11    21 ar  
    29    11    51 1   
    30    14    39 1   
    31    14    52 1   
    32    14    53 1   
    33    14    54 1   
    34    15    16 2   
    35    15    38 1   
    36    15    73 1   
    37    16    17 1   
    38    16    55 1   
    39    17    18 ar  
    40    17    31 ar  
    41    18    19 1   
    42    18    28 ar  
    43    19    56 1   
    44    20    32 1   
    45    20    33 2   
    46    20    57 1   
    47    21    23 ar  
    48    21    41 1   
    49    22    41 1   
    50    22    58 1   
    51    22    59 1   
    52    22    60 1   
    53    23    25 ar  
    54    23    42 1   
    55    24    42 1   
    56    24    61 1   
    57    24    62 1   
    58    24    63 1   
    59    25    27 ar  
    60    25    43 1   
    61    26    43 1   
    62    26    64 1   
    63    26    65 1   
    64    26    66 1   
    65    27    37 1   
    66    28    29 ar  
    67    28    36 1   
    68    29    30 ar  
    69    29    67 1   
    70    30    31 ar  
    71    30    44 1   
    72    31    38 1   
    73    34    68 1   
    74    34    69 1   
    75    37    70 1   
    76    38    71 1   
    77    39    73 1   
    78    40    73 2   
    79    44    72 1   
@<TRIPOS>SUBSTRUCTURE
     1 YNY         1 TEMP              0 ****  ****    0 ROOT
