@<TRIPOS>MOLECULE
YNZ
   49    51     1     0     0
SMALL
No Charge or Current Charge


@<TRIPOS>ATOM
      1 C13         57.6450    -1.7370    17.1620 cc         1 YNZ       0.456700
      2 C17         59.0640    -0.0650    15.8460 c3         1 YNZ      -0.085767
      3 C16         56.6890    -0.5440    15.1550 c3         1 YNZ      -0.085767
      4 C15         58.4820    -2.3060    14.8510 c3         1 YNZ      -0.085767
      5 C11         57.7280    -2.0340    19.3660 cd         1 YNZ       0.385500
      6 C12         56.7600    -2.9650    19.0620 cc         1 YNZ      -0.269000
      7 C1          63.0470     1.8560    26.4810 c5         1 YNZ      -0.085400
      8 C10         56.8000    -3.4530    22.1220 c3         1 YNZ      -0.122400
      9 C14         57.9680    -1.1690    15.7760 c3         1 YNZ      -0.078300
     10 C2          61.6800     1.5410    27.1330 c5         1 YNZ      -0.095400
     11 C3          61.1170     0.4560    26.1830 c5         1 YNZ       0.101000
     12 C4          62.6730     1.9710    24.9720 c5         1 YNZ       0.033700
     13 C5          63.9610     1.7160    24.1220 c          1 YNZ       0.612100
     14 C6          61.0220     0.5680    23.6320 c          1 YNZ       0.656100
     15 C7          59.3400    -0.9730    22.6960 cd         1 YNZ       0.526300
     16 C8          58.2140    -1.7700    20.6970 cd         1 YNZ      -0.324500
     17 C9          57.8210    -2.3740    21.8790 cc         1 YNZ       0.336300
     18 N1          61.5850     0.9460    24.8650 n          1 YNZ      -0.433800
     19 N4          58.4660    -1.9130    23.0010 nc         1 YNZ      -0.724000
     20 N5          58.2310    -1.3360    18.2840 nd         1 YNZ      -0.659000
     21 O1          64.6660     2.5840    23.6310 o          1 YNZ      -0.593100
     22 O2          61.3760     1.0830    22.5860 o          1 YNZ      -0.606100
     23 S1          59.4550    -0.5600    20.9840 ss         1 YNZ       0.146600
     24 S2          56.4410    -2.9930    17.3530 ss         1 YNZ      -0.033400
     25 H1          59.9980    -0.4630    16.2620 hc         1 YNZ       0.042700
     26 H2          59.2870     0.3330    14.8490 hc         1 YNZ       0.042700
     27 H3          58.7410     0.7730    16.4760 hc         1 YNZ       0.042700
     28 H4          56.2890     0.2470    15.8020 hc         1 YNZ       0.042700
     29 H5          56.9050    -0.1010    14.1740 hc         1 YNZ       0.042700
     30 H6          55.9030    -1.2950    15.0140 hc         1 YNZ       0.042700
     31 H7          59.3720    -2.7830    15.2790 hc         1 YNZ       0.042700
     32 H8          57.7200    -3.0810    14.7060 hc         1 YNZ       0.042700
     33 H9          58.7510    -1.9160    13.8610 hc         1 YNZ       0.042700
     34 H10         56.2010    -3.6400    19.6850 h4         1 YNZ       0.162000
     35 H11         63.7580     1.0410    26.6660 hc         1 YNZ       0.064700
     36 H12         63.5000     2.7750    26.8700 hc         1 YNZ       0.064700
     37 H13         56.7290    -3.7080    23.1860 hc         1 YNZ       0.048700
     38 H14         55.8020    -3.1270    21.8060 hc         1 YNZ       0.048700
     39 H15         57.0670    -4.3730    21.5910 hc         1 YNZ       0.048700
     40 H16         61.0340     2.4280    27.1440 hc         1 YNZ       0.061700
     41 H17         61.7700     1.1880    28.1660 hc         1 YNZ       0.061700
     42 H18         60.0230     0.3970    26.2530 h1         1 YNZ       0.049700
     43 H19         61.5420    -0.5330    26.4030 h1         1 YNZ       0.049700
     44 H20         62.2890     2.9690    24.7240 h1         1 YNZ       0.095700
     45 H21         65.0770     0.1760    23.3600 hn         1 YNZ       0.316000
     46 H22         63.6770    -0.3050    24.3040 hn         1 YNZ       0.316000
     47 N3          60.0680    -0.4060    23.7030 ns         1 YNZ      -0.482400
     48 N2          64.2680     0.4130    23.9140 nt         1 YNZ      -0.600000
     49 H23         59.8870    -0.7490    24.6310 hn         1 YNZ       0.336500
@<TRIPOS>BOND
     1     1     9 1   
     2     1    20 2   
     3     1    24 1   
     4     2     9 1   
     5     2    25 1   
     6     2    26 1   
     7     2    27 1   
     8     3     9 1   
     9     3    28 1   
    10     3    29 1   
    11     3    30 1   
    12     4     9 1   
    13     4    31 1   
    14     4    32 1   
    15     4    33 1   
    16     5     6 2   
    17     5    16 1   
    18     5    20 1   
    19     6    24 1   
    20     6    34 1   
    21     7    10 1   
    22     7    12 1   
    23     7    35 1   
    24     7    36 1   
    25     8    17 1   
    26     8    37 1   
    27     8    38 1   
    28     8    39 1   
    29    10    11 1   
    30    10    40 1   
    31    10    41 1   
    32    11    18 1   
    33    11    42 1   
    34    11    43 1   
    35    12    13 1   
    36    12    18 1   
    37    12    44 1   
    38    13    21 2   
    39    13    48 1   
    40    14    18 1   
    41    14    22 2   
    42    14    47 1   
    43    15    19 2   
    44    15    23 1   
    45    15    47 1   
    46    16    17 2   
    47    16    23 1   
    48    17    19 1   
    49    45    48 1   
    50    46    48 1   
    51    47    49 1   
@<TRIPOS>SUBSTRUCTURE
     1 YNZ         1 TEMP              0 ****  ****    0 ROOT
