@<TRIPOS>MOLECULE
YNZ
   49    51     1     0     0
SMALL
abcg2


@<TRIPOS>ATOM
      1 C13         57.6850    -1.6180    17.3450 cc         1 YNZ       0.456700
      2 C17         58.0700     0.6150    16.3520 c3         1 YNZ      -0.085767
      3 C16         57.2290    -1.2430    14.9100 c3         1 YNZ      -0.085767
      4 C15         59.5680    -1.3150    15.7860 c3         1 YNZ      -0.085767
      5 C11         57.5920    -2.1680    19.4910 cd         1 YNZ       0.385500
      6 C12         56.7190    -3.1040    19.0100 cc         1 YNZ      -0.269000
      7 C1          63.1590     2.0000    25.8420 c5         1 YNZ      -0.085400
      8 C10         56.3820    -3.3910    22.1960 c3         1 YNZ      -0.122400
      9 C14         58.1260    -0.8940    16.0970 c3         1 YNZ      -0.078300
     10 C2          61.8610     1.8940    26.6320 c5         1 YNZ      -0.095400
     11 C3          61.1780     0.6760    26.0240 c5         1 YNZ       0.101000
     12 C4          62.7420     1.6170    24.4160 c5         1 YNZ       0.033700
     13 C5          63.9040     0.9960    23.6520 c          1 YNZ       0.612100
     14 C6          60.9610     0.2310    23.5600 c          1 YNZ       0.656100
     15 C7          59.1400    -1.1900    22.8490 cd         1 YNZ       0.526300
     16 C8          58.0060    -1.9520    20.8610 cd         1 YNZ      -0.324500
     17 C9          57.5270    -2.4490    22.0380 cc         1 YNZ       0.336300
     18 N1          61.6180     0.7210    24.6310 n          1 YNZ      -0.433800
     19 N4          58.1820    -2.0080    23.1550 nc         1 YNZ      -0.724000
     20 N5          58.1260    -1.3480    18.5300 nd         1 YNZ      -0.659000
     21 O1          64.6290     1.6960    22.9630 o          1 YNZ      -0.593100
     22 O2          61.2700     0.5040    22.4080 o          1 YNZ      -0.606100
     23 S1          59.3400    -0.8770    21.1640 ss         1 YNZ       0.146600
     24 S2          56.5590    -2.9300    17.3170 ss         1 YNZ      -0.033400
     25 H1          58.7110     0.9040    17.1840 hc         1 YNZ       0.042700
     26 H2          58.4070     1.1490    15.4630 hc         1 YNZ       0.042700
     27 H3          57.0530     0.9420    16.5740 hc         1 YNZ       0.042700
     28 H4          56.1890    -0.9680    15.0910 hc         1 YNZ       0.042700
     29 H5          57.5640    -0.6970    14.0270 hc         1 YNZ       0.042700
     30 H6          57.2680    -2.3060    14.6630 hc         1 YNZ       0.042700
     31 H7          60.2380    -1.0690    16.6100 hc         1 YNZ       0.042700
     32 H8          59.6350    -2.3880    15.6000 hc         1 YNZ       0.042700
     33 H9          59.9200    -0.7950    14.8940 hc         1 YNZ       0.042700
     34 H10         56.1860    -3.8730    19.5420 h4         1 YNZ       0.162000
     35 H11         63.8920     1.2880    26.2300 hc         1 YNZ       0.064700
     36 H12         63.6070     2.9910    25.8750 hc         1 YNZ       0.064700
     37 H13         56.0970    -3.4670    23.2440 hc         1 YNZ       0.048700
     38 H14         55.5090    -3.0600    21.6310 hc         1 YNZ       0.048700
     39 H15         56.6320    -4.3950    21.8450 hc         1 YNZ       0.048700
     40 H16         61.2450     2.7810    26.4750 hc         1 YNZ       0.061700
     41 H17         62.0240     1.7820    27.7030 hc         1 YNZ       0.061700
     42 H18         60.0920     0.7400    26.1030 h1         1 YNZ       0.049700
     43 H19         61.5030    -0.2490    26.5080 h1         1 YNZ       0.049700
     44 H20         62.4290     2.5060    23.8610 h1         1 YNZ       0.095700
     45 H21         64.8920    -0.7760    23.4300 hn         1 YNZ       0.316000
     46 H22         63.5060    -0.8640    24.4440 hn         1 YNZ       0.316000
     47 N3          59.9160    -0.6210    23.8240 ns         1 YNZ      -0.482400
     48 N2          64.1030    -0.3140    23.8510 nt         1 YNZ      -0.600000
     49 H23         59.6990    -0.9150    24.7670 hn         1 YNZ       0.336500
@<TRIPOS>BOND
     1     1     9 1   
     2     1    20 2   
     3     1    24 1   
     4     2     9 1   
     5     2    25 1   
     6     2    26 1   
     7     2    27 1   
     8     3     9 1   
     9     3    28 1   
    10     3    29 1   
    11     3    30 1   
    12     4     9 1   
    13     4    31 1   
    14     4    32 1   
    15     4    33 1   
    16     5     6 2   
    17     5    16 1   
    18     5    20 1   
    19     6    24 1   
    20     6    34 1   
    21     7    10 1   
    22     7    12 1   
    23     7    35 1   
    24     7    36 1   
    25     8    17 1   
    26     8    37 1   
    27     8    38 1   
    28     8    39 1   
    29    10    11 1   
    30    10    40 1   
    31    10    41 1   
    32    11    18 1   
    33    11    42 1   
    34    11    43 1   
    35    12    13 1   
    36    12    18 1   
    37    12    44 1   
    38    13    21 2   
    39    13    48 1   
    40    14    18 1   
    41    14    22 2   
    42    14    47 1   
    43    15    19 2   
    44    15    23 1   
    45    15    47 1   
    46    16    17 2   
    47    16    23 1   
    48    17    19 1   
    49    45    48 1   
    50    46    48 1   
    51    47    49 1   
@<TRIPOS>SUBSTRUCTURE
     1 YNZ         1 TEMP              0 ****  ****    0 ROOT
