@<TRIPOS>MOLECULE
YO1
   62    66     1     0     0
SMALL
No Charge or Current Charge


@<TRIPOS>ATOM
      1 N18         18.5090     3.0930   -11.1960 nc         1 YO1      -0.688000
      2 C21          2.2430     3.8640    -7.8640 ca         1 YO1      -0.006000
      3 C22         13.9940     2.7510    -8.3530 ca         1 YO1      -0.006000
      4 C24         15.0510     4.7560    -7.4490 ca         1 YO1      -0.006000
      5 C25          4.6540     4.1590    -8.0850 ca         1 YO1       0.160900
      6 C33          7.2280     7.7980    -8.7200 ca         1 YO1       0.476000
      7 C34          9.6310     7.9670    -8.6460 ca         1 YO1       0.476000
      8 C39          1.8340     4.3000   -12.3540 cc         1 YO1      -0.272500
      9 C40         16.8190     2.7610   -12.7680 cd         1 YO1      -0.272500
     10 C19          2.3590     2.5360    -8.3240 ca         1 YO1      -0.295500
     11 C20         15.1520     3.4330    -7.9240 ca         1 YO1      -0.295500
     12 C23          3.6290     2.0210    -8.6600 ca         1 YO1      -0.006000
     13 C26         12.6430     4.7180    -7.8400 ca         1 YO1       0.160900
     14 C27          3.3890     4.6690    -7.7450 ca         1 YO1      -0.117250
     15 C28         12.7460     3.3960    -8.3090 ca         1 YO1      -0.117250
     16 C29          4.7690     2.8330    -8.5380 ca         1 YO1      -0.117250
     17 C30         13.7980     5.3920    -7.4070 ca         1 YO1      -0.117250
     18 C31          7.3150     6.3970    -8.8820 ca         1 YO1      -0.084100
     19 C32          9.7510     6.5680    -8.8070 ca         1 YO1      -0.084100
     20 C35          8.5840     5.7910    -8.9310 ca         1 YO1       0.064000
     21 C36          8.3780     8.5740    -8.6000 ca         1 YO1      -0.359000
     22 C37          0.8470     2.7300   -10.8210 cc         1 YO1       0.672800
     23 C38         17.4210     3.1370   -10.4670 cd         1 YO1       0.672800
     24 C41          0.8950     4.8300   -11.4980 cd         1 YO1       0.308400
     25 C42         18.1650     2.8660   -12.5070 cc         1 YO1       0.308400
     26 N09          0.4140     1.6860   -10.0900 nu         1 YO1      -0.852000
     27 N10         17.5990     3.4220    -9.1770 nu         1 YO1      -0.852000
     28 N11          5.8010     4.9680    -7.9630 ne         1 YO1      -0.244900
     29 N12         11.3890     5.3570    -7.7920 ne         1 YO1      -0.244900
     30 N14         11.0190     5.9290    -8.8590 nf         1 YO1      -0.186900
     31 N15          6.0240     8.4370    -8.6760 nv         1 YO1      -1.092000
     32 N16         10.7290     8.7680    -8.5310 nv         1 YO1      -1.092000
     33 N17          0.3190     3.9180   -10.6240 nd         1 YO1      -0.688000
     34 O05         -0.2240     2.0580    -7.7330 o          1 YO1      -0.523750
     35 O06          1.2630     0.0970    -8.4620 o          1 YO1      -0.523750
     36 O07         16.6360     1.2570    -8.4680 o          1 YO1      -0.523750
     37 O08         17.5290     2.9730    -6.7870 o          1 YO1      -0.523750
     38 S01          0.8910     1.5120    -8.5110 sy         1 YO1       1.170600
     39 S02         16.7600     2.6330    -7.9850 sy         1 YO1       1.170600
     40 S03          2.0270     2.5900   -12.0990 ss         1 YO1      -0.036900
     41 S04         15.8790     2.9630   -11.3000 ss         1 YO1      -0.036900
     42 H1           1.2690     4.2800    -7.6070 ha         1 YO1       0.139000
     43 H2          14.0530     1.7280    -8.7230 ha         1 YO1       0.139000
     44 H3          15.9380     5.2940    -7.1160 ha         1 YO1       0.139000
     45 H6          16.3390     2.5880   -13.7230 h4         1 YO1       0.164000
     46 H8           3.7380     0.9980    -9.0190 ha         1 YO1       0.139000
     47 H9           3.2950     5.6920    -7.3920 ha         1 YO1       0.130500
     48 H10         11.8550     2.8690    -8.6400 ha         1 YO1       0.130500
     49 H11          5.7460     2.4340    -8.7990 ha         1 YO1       0.130500
     50 H12         13.7240     6.4120    -7.0400 ha         1 YO1       0.130500
     51 H13          8.6640     4.7140    -9.0590 ha         1 YO1       0.156000
     52 H14          8.2990     9.6490    -8.4810 ha         1 YO1       0.118000
     53 H16          0.5880     5.8680   -11.4660 h4         1 YO1       0.044600
     54 H18         18.9600     2.7890   -13.2380 h4         1 YO1       0.044600
     55 H19         18.5660     3.3240    -8.9270 hn         1 YO1       0.517500
     56 H24          5.9890     9.3740    -8.2830 hn         1 YO1       0.501750
     57 H25          5.1960     7.8600    -8.5490 hn         1 YO1       0.501750
     58 H26         10.6090     9.6990    -8.1420 hn         1 YO1       0.501750
     59 H27         11.6200     8.3120    -8.3530 hn         1 YO1       0.501750
     60 H32          0.7020     0.8060   -10.4850 hn         1 YO1       0.517500
     61 N13          6.1550     5.5860    -9.0090 nf         1 YO1      -0.186900
     62 H4           2.4120     4.8060   -13.1160 h4         1 YO1       0.164000
@<TRIPOS>BOND
     1     1    23 2   
     2     1    25 1   
     3     2    10 ar  
     4     2    14 ar  
     5     2    42 1   
     6     3    11 ar  
     7     3    15 ar  
     8     3    43 1   
     9     4    11 ar  
    10     4    17 ar  
    11     4    44 1   
    12     5    14 ar  
    13     5    16 ar  
    14     5    28 1   
    15     6    18 ar  
    16     6    21 ar  
    17     6    31 1   
    18     7    19 ar  
    19     7    21 ar  
    20     7    32 1   
    21     8    24 2   
    22     8    40 1   
    23     8    62 1   
    24     9    25 2   
    25     9    41 1   
    26     9    45 1   
    27    10    12 ar  
    28    10    38 1   
    29    11    39 1   
    30    12    16 ar  
    31    12    46 1   
    32    13    15 ar  
    33    13    17 ar  
    34    13    29 1   
    35    14    47 1   
    36    15    48 1   
    37    16    49 1   
    38    17    50 1   
    39    18    20 ar  
    40    18    61 1   
    41    19    20 ar  
    42    19    30 1   
    43    20    51 1   
    44    21    52 1   
    45    22    26 1   
    46    22    33 2   
    47    22    40 1   
    48    23    27 1   
    49    23    41 1   
    50    24    33 1   
    51    24    53 1   
    52    25    54 1   
    53    26    38 1   
    54    26    60 1   
    55    27    39 1   
    56    27    55 1   
    57    28    61 2   
    58    29    30 2   
    59    31    56 1   
    60    31    57 1   
    61    32    58 1   
    62    32    59 1   
    63    34    38 2   
    64    35    38 2   
    65    36    39 2   
    66    37    39 2   
@<TRIPOS>SUBSTRUCTURE
     1 YO1         1 TEMP              0 ****  ****    0 ROOT
