@<TRIPOS>MOLECULE
YO1
   62    66     1     0     0
SMALL
abcg2


@<TRIPOS>ATOM
      1 N18         18.6600     3.0920   -10.8730 nc         1 YO1      -0.688000
      2 C21          2.6850     4.0270    -8.2020 ca         1 YO1      -0.006000
      3 C22         14.0220     2.4520    -8.4290 ca         1 YO1      -0.006000
      4 C24         14.9340     4.5800    -7.7110 ca         1 YO1      -0.006000
      5 C25          5.0630     4.0550    -8.5860 ca         1 YO1       0.160900
      6 C33          7.4490     7.9920    -8.5460 ca         1 YO1       0.476000
      7 C34          9.8760     8.1040    -8.4340 ca         1 YO1       0.476000
      8 C39         -0.2730     3.9680   -12.6440 cc         1 YO1      -0.272500
      9 C40         17.0360     3.2400   -12.5020 cd         1 YO1      -0.272500
     10 C19          2.6760     2.6610    -8.4630 ca         1 YO1      -0.295500
     11 C20         15.0930     3.2300    -8.0150 ca         1 YO1      -0.295500
     12 C23          3.8430     1.9820    -8.7870 ca         1 YO1      -0.006000
     13 C26         12.5980     4.3960    -8.2680 ca         1 YO1       0.160900
     14 C27          3.8770     4.7210    -8.2640 ca         1 YO1      -0.117250
     15 C28         12.7760     3.0420    -8.5470 ca         1 YO1      -0.117250
     16 C29          5.0320     2.6840    -8.8450 ca         1 YO1      -0.117250
     17 C30         13.6920     5.1630    -7.8440 ca         1 YO1      -0.117250
     18 C31          7.5190     6.5550    -8.5540 ca         1 YO1      -0.084100
     19 C32          9.9370     6.6670    -8.4440 ca         1 YO1      -0.084100
     20 C35          8.7580     5.9390    -8.5080 ca         1 YO1       0.064000
     21 C36          8.6310     8.7280    -8.4890 ca         1 YO1      -0.359000
     22 C37          0.3360     2.5830   -10.7620 cc         1 YO1       0.672800
     23 C38         17.6050     3.3060   -10.1600 cd         1 YO1       0.672800
     24 C41         -0.0650     4.6100   -11.4730 cd         1 YO1       0.308400
     25 C42         18.3440     3.0630   -12.2020 cc         1 YO1       0.308400
     26 N09          0.6500     1.5460    -9.9180 nu         1 YO1      -0.852000
     27 N10         17.6360     3.4590    -8.7820 nu         1 YO1      -0.852000
     28 N11          6.3270     4.6550    -8.6360 ne         1 YO1      -0.244900
     29 N12         11.2950     4.8810    -8.4150 ne         1 YO1      -0.244900
     30 N14         11.1950     6.1240    -8.3560 nf         1 YO1      -0.186900
     31 N15          6.2550     8.5920    -8.6020 nv         1 YO1      -1.092000
     32 N16         11.0080     8.8130    -8.3810 nv         1 YO1      -1.092000
     33 N17          0.2800     3.8220   -10.4080 nd         1 YO1      -0.688000
     34 O05          0.1980     2.5540    -7.6300 o          1 YO1      -0.523750
     35 O06          1.4640     0.4020    -7.9030 o          1 YO1      -0.523750
     36 O07         16.6230     1.1350    -8.3180 o          1 YO1      -0.523750
     37 O08         17.1650     2.7320    -6.4560 o          1 YO1      -0.523750
     38 S01          1.1700     1.7530    -8.3400 sy         1 YO1       1.170600
     39 S02         16.6760     2.4880    -7.7980 sy         1 YO1       1.170600
     40 S03         -0.0290     2.2740   -12.4300 ss         1 YO1      -0.036900
     41 S04         16.1390     3.5020   -11.0600 ss         1 YO1      -0.036900
     42 H1           1.7740     4.5470    -7.9440 ha         1 YO1       0.139000
     43 H2          14.1470     1.4040    -8.6630 ha         1 YO1       0.139000
     44 H3          15.7730     5.1790    -7.3830 ha         1 YO1       0.139000
     45 H6          16.5560     3.2230   -13.4670 h4         1 YO1       0.164000
     46 H8           3.8370     0.9180    -8.9860 ha         1 YO1       0.139000
     47 H9           3.8890     5.7800    -8.0450 ha         1 YO1       0.130500
     48 H10         11.9240     2.4550    -8.8650 ha         1 YO1       0.130500
     49 H11          5.9550     2.1730    -9.0840 ha         1 YO1       0.130500
     50 H12         13.5640     6.2100    -7.6090 ha         1 YO1       0.130500
     51 H13          8.8090     4.8580    -8.5010 ha         1 YO1       0.156000
     52 H14          8.5800     9.8100    -8.4830 ha         1 YO1       0.118000
     53 H16         -0.1530     5.6780   -11.3350 h4         1 YO1       0.044600
     54 H18         19.1240     2.8890   -12.9300 h4         1 YO1       0.044600
     55 H19         18.5720     3.5830    -8.4050 hn         1 YO1       0.517500
     56 H24          6.1720     9.5920    -8.5430 hn         1 YO1       0.501750
     57 H25          5.4130     8.0440    -8.5960 hn         1 YO1       0.501750
     58 H26         10.9880     9.8160    -8.3190 hn         1 YO1       0.501750
     59 H27         11.8950     8.3490    -8.2970 hn         1 YO1       0.501750
     60 H32          0.8470     0.6330   -10.3080 hn         1 YO1       0.517500
     61 N13          6.3100     5.9010    -8.5720 nf         1 YO1      -0.186900
     62 H4          -0.5510     4.3780   -13.6020 h4         1 YO1       0.164000
@<TRIPOS>BOND
     1     1    23 2   
     2     1    25 1   
     3     2    10 ar  
     4     2    14 ar  
     5     2    42 1   
     6     3    11 ar  
     7     3    15 ar  
     8     3    43 1   
     9     4    11 ar  
    10     4    17 ar  
    11     4    44 1   
    12     5    14 ar  
    13     5    16 ar  
    14     5    28 1   
    15     6    18 ar  
    16     6    21 ar  
    17     6    31 1   
    18     7    19 ar  
    19     7    21 ar  
    20     7    32 1   
    21     8    24 2   
    22     8    40 1   
    23     8    62 1   
    24     9    25 2   
    25     9    41 1   
    26     9    45 1   
    27    10    12 ar  
    28    10    38 1   
    29    11    39 1   
    30    12    16 ar  
    31    12    46 1   
    32    13    15 ar  
    33    13    17 ar  
    34    13    29 1   
    35    14    47 1   
    36    15    48 1   
    37    16    49 1   
    38    17    50 1   
    39    18    20 ar  
    40    18    61 1   
    41    19    20 ar  
    42    19    30 1   
    43    20    51 1   
    44    21    52 1   
    45    22    26 1   
    46    22    33 2   
    47    22    40 1   
    48    23    27 1   
    49    23    41 1   
    50    24    33 1   
    51    24    53 1   
    52    25    54 1   
    53    26    38 1   
    54    26    60 1   
    55    27    39 1   
    56    27    55 1   
    57    28    61 2   
    58    29    30 2   
    59    31    56 1   
    60    31    57 1   
    61    32    58 1   
    62    32    59 1   
    63    34    38 2   
    64    35    38 2   
    65    36    39 2   
    66    37    39 2   
@<TRIPOS>SUBSTRUCTURE
     1 YO1         1 TEMP              0 ****  ****    0 ROOT
