@<TRIPOS>MOLECULE
YO3
   43    46     1     0     0
SMALL
No Charge or Current Charge


@<TRIPOS>ATOM
      1 C01        -10.5780     3.6270    -5.2550 c3         1 YO3       0.036900
      2 C03        -11.2930     5.0120    -7.1780 ca         1 YO3       0.054700
      3 C04        -12.1000     5.9890    -7.7740 ca         1 YO3      -0.242000
      4 C05        -13.1650     6.5620    -7.0640 ca         1 YO3       0.173200
      5 C06        -13.9700     7.6180    -7.7380 ce         1 YO3      -0.338200
      6 C07        -14.3770     7.6550    -9.0330 cf         1 YO3       0.056000
      7 C08        -15.1560     8.7450    -9.6030 cf         1 YO3      -0.395000
      8 C09        -15.5860     8.8460   -10.8940 cc         1 YO3       0.288000
      9 C11        -15.8740     8.3690   -12.9740 ca         1 YO3       0.037100
     10 C12        -15.8690     7.7590   -14.2350 ca         1 YO3      -0.063000
     11 C13        -16.4910     8.4420   -15.3040 ca         1 YO3      -0.088000
     12 C14        -17.0950     9.7060   -15.0950 ca         1 YO3      -0.082000
     13 C15        -17.0870    10.3000   -13.8140 ca         1 YO3      -0.081000
     14 C16        -16.4640     9.5940   -12.7730 ca         1 YO3      -0.063200
     15 C19        -13.4300     6.1240    -5.7400 ca         1 YO3      -0.102000
     16 C20        -14.5270     6.6410    -5.0100 ca         1 YO3      -0.046000
     17 C21        -14.7920     6.2000    -3.7050 ca         1 YO3      -0.116000
     18 C22        -13.9720     5.2340    -3.1110 ca         1 YO3      -0.029000
     19 C23        -12.8870     4.7020    -3.8240 ca         1 YO3      -0.154000
     20 C24        -12.5990     5.1340    -5.1420 ca         1 YO3      -0.001000
     21 N02        -11.5130     4.5970    -5.8640 na         1 YO3      -0.035700
     22 N17        -16.2980     9.9080   -11.4510 na         1 YO3      -0.127700
     23 O10        -15.3140     7.8560   -11.8290 os         1 YO3      -0.184200
     24 H1         -11.1170     2.7070    -4.9970 h1         1 YO3       0.075033
     25 H2          -9.7690     3.3770    -5.9520 h1         1 YO3       0.075033
     26 H3         -10.1360     4.0590    -4.3480 h1         1 YO3       0.075033
     27 H4         -10.4610     4.5640    -7.7230 h4         1 YO3       0.156000
     28 H5         -11.8830     6.3120    -8.7890 ha         1 YO3       0.147000
     29 H6         -14.2400     8.4580    -7.1000 ha         1 YO3       0.193000
     30 H7         -14.1160     6.8200    -9.6910 ha         1 YO3       0.176000
     31 H8         -15.4080     9.5800    -8.9510 ha         1 YO3       0.211000
     32 H10        -15.3990     6.7900   -14.3840 ha         1 YO3       0.149000
     33 H11        -16.5030     7.9940   -16.2960 ha         1 YO3       0.141000
     34 H12        -17.5690    10.2230   -15.9270 ha         1 YO3       0.140000
     35 H13        -17.5470    11.2720   -13.6500 ha         1 YO3       0.140000
     36 H14        -17.0030    10.9870    -9.7700 h1         1 YO3       0.070033
     37 H15        -16.0260    11.9360   -10.9300 h1         1 YO3       0.070033
     38 H16        -17.7110    11.4810   -11.3250 h1         1 YO3       0.070033
     39 H17        -15.1970     7.3780    -5.4440 ha         1 YO3       0.133000
     40 H18        -15.6380     6.6060    -3.1550 ha         1 YO3       0.140000
     41 H19        -14.1800     4.8910    -2.0990 ha         1 YO3       0.139000
     42 H20        -12.2800     3.9480    -3.3300 ha         1 YO3       0.134000
     43 C18        -16.7880    11.1530   -10.8320 c3         1 YO3       0.068900
@<TRIPOS>BOND
     1     1    21 1   
     2     1    24 1   
     3     1    25 1   
     4     1    26 1   
     5     2     3 ar  
     6     2    21 2   
     7     2    27 1   
     8     3     4 ar  
     9     3    28 1   
    10     4     5 1   
    11     4    15 ar  
    12     5     6 2   
    13     5    29 1   
    14     6     7 1   
    15     6    30 1   
    16     7     8 2   
    17     7    31 1   
    18     8    22 1   
    19     8    23 1   
    20     9    10 ar  
    21     9    14 ar  
    22     9    23 1   
    23    10    11 ar  
    24    10    32 1   
    25    11    12 ar  
    26    11    33 1   
    27    12    13 ar  
    28    12    34 1   
    29    13    14 ar  
    30    13    35 1   
    31    14    22 1   
    32    15    16 ar  
    33    15    20 ar  
    34    16    17 ar  
    35    16    39 1   
    36    17    18 ar  
    37    17    40 1   
    38    18    19 ar  
    39    18    41 1   
    40    19    20 ar  
    41    19    42 1   
    42    20    21 1   
    43    22    43 1   
    44    36    43 1   
    45    37    43 1   
    46    38    43 1   
@<TRIPOS>SUBSTRUCTURE
     1 YO3         1 TEMP              0 ****  ****    0 ROOT
