@<TRIPOS>MOLECULE
YO3
   43    46     1     0     0
SMALL
abcg2


@<TRIPOS>ATOM
      1 C01        -10.9000     3.4430    -5.5730 c3         1 YO3       0.036900
      2 C03        -11.9630     4.6610    -7.3850 ca         1 YO3       0.054700
      3 C04        -12.8060     5.5930    -7.9180 ca         1 YO3      -0.242000
      4 C05        -13.6000     6.4250    -7.1010 ca         1 YO3       0.173200
      5 C06        -14.4780     7.3990    -7.6300 ce         1 YO3      -0.338200
      6 C07        -14.6790     7.6360    -8.9740 cf         1 YO3       0.056000
      7 C08        -15.5460     8.6050    -9.4800 cf         1 YO3      -0.395000
      8 C09        -15.7260     8.8120   -10.8330 cc         1 YO3       0.288000
      9 C11        -15.4790     8.5570   -13.0160 ca         1 YO3       0.037100
     10 C12        -15.0820     8.1230   -14.2580 ca         1 YO3      -0.063000
     11 C13        -15.6550     8.7840   -15.3480 ca         1 YO3      -0.088000
     12 C14        -16.5730     9.8210   -15.1680 ca         1 YO3      -0.082000
     13 C15        -16.9630    10.2460   -13.8980 ca         1 YO3      -0.081000
     14 C16        -16.3950     9.5860   -12.8200 ca         1 YO3      -0.063200
     15 C19        -13.4590     6.2220    -5.6700 ca         1 YO3      -0.102000
     16 C20        -14.1890     6.9720    -4.7240 ca         1 YO3      -0.046000
     17 C21        -14.0420     6.7720    -3.3710 ca         1 YO3      -0.116000
     18 C22        -13.1490     5.8010    -2.9020 ca         1 YO3      -0.029000
     19 C23        -12.4180     5.0420    -3.7880 ca         1 YO3      -0.154000
     20 C24        -12.5610     5.2370    -5.1730 ca         1 YO3      -0.001000
     21 N02        -11.8260     4.4690    -6.0590 na         1 YO3      -0.035700
     22 N17        -16.5320     9.7170   -11.4390 na         1 YO3      -0.127700
     23 O10        -15.0750     8.0880   -11.7800 os         1 YO3      -0.184200
     24 H1         -11.4390     2.6990    -4.9870 h1         1 YO3       0.075033
     25 H2         -10.4440     2.9620    -6.4320 h1         1 YO3       0.075033
     26 H3         -10.1230     3.8960    -4.9590 h1         1 YO3       0.075033
     27 H4         -11.3570     4.0270    -8.0160 h4         1 YO3       0.156000
     28 H5         -12.8390     5.6690    -8.9940 ha         1 YO3       0.147000
     29 H6         -15.0410     8.0120    -6.9410 ha         1 YO3       0.193000
     30 H7         -14.1390     7.0410    -9.7020 ha         1 YO3       0.176000
     31 H8         -16.1100     9.2350    -8.8060 ha         1 YO3       0.211000
     32 H10        -14.3690     7.3190   -14.3800 ha         1 YO3       0.149000
     33 H11        -15.3790     8.4840   -16.3500 ha         1 YO3       0.141000
     34 H12        -16.9940    10.3100   -16.0360 ha         1 YO3       0.140000
     35 H13        -17.6730    11.0510   -13.7680 ha         1 YO3       0.140000
     36 H14        -18.0060    10.1500   -10.0200 h1         1 YO3       0.070033
     37 H15        -16.7580    11.4060   -10.2160 h1         1 YO3       0.070033
     38 H16        -18.0030    11.1800   -11.4620 h1         1 YO3       0.070033
     39 H17        -14.8840     7.7250    -5.0630 ha         1 YO3       0.133000
     40 H18        -14.6170     7.3650    -2.6720 ha         1 YO3       0.140000
     41 H19        -13.0290     5.6410    -1.8390 ha         1 YO3       0.139000
     42 H20        -11.7350     4.2970    -3.4120 ha         1 YO3       0.134000
     43 C18        -17.3740    10.6730   -10.7370 c3         1 YO3       0.068900
@<TRIPOS>BOND
     1     1    21 1   
     2     1    24 1   
     3     1    25 1   
     4     1    26 1   
     5     2     3 ar  
     6     2    21 2   
     7     2    27 1   
     8     3     4 ar  
     9     3    28 1   
    10     4     5 1   
    11     4    15 ar  
    12     5     6 2   
    13     5    29 1   
    14     6     7 1   
    15     6    30 1   
    16     7     8 2   
    17     7    31 1   
    18     8    22 1   
    19     8    23 1   
    20     9    10 ar  
    21     9    14 ar  
    22     9    23 1   
    23    10    11 ar  
    24    10    32 1   
    25    11    12 ar  
    26    11    33 1   
    27    12    13 ar  
    28    12    34 1   
    29    13    14 ar  
    30    13    35 1   
    31    14    22 1   
    32    15    16 ar  
    33    15    20 ar  
    34    16    17 ar  
    35    16    39 1   
    36    17    18 ar  
    37    17    40 1   
    38    18    19 ar  
    39    18    41 1   
    40    19    20 ar  
    41    19    42 1   
    42    20    21 1   
    43    22    43 1   
    44    36    43 1   
    45    37    43 1   
    46    38    43 1   
@<TRIPOS>SUBSTRUCTURE
     1 YO3         1 TEMP              0 ****  ****    0 ROOT
