@<TRIPOS>MOLECULE
YO5
   29    29     1     0     0
SMALL
bcc


@<TRIPOS>ATOM
      1 C2           1.0380    -1.6110    -0.3450 c6         1 YO5       0.105100
      2 C3           2.3530    -1.1290     0.2490 c6         1 YO5       0.097100
      3 C4           2.6450     0.3030    -0.1690 c6         1 YO5       0.071100
      4 C5           1.4350     1.1800     0.1730 c6         1 YO5       0.127100
      5 C1          -0.0880    -0.6270    -0.0080 c6         1 YO5       0.193100
      6 C6           1.6330     2.6060    -0.2950 c3         1 YO5       0.155400
      7 C7          -1.4120    -1.0000    -0.6420 c3         1 YO5      -0.211600
      8 O2           0.6930    -2.8770     0.1690 oh         1 YO5      -0.564800
      9 O3           3.3690    -2.0170    -0.1640 oh         1 YO5      -0.623800
     10 O4           3.8160     0.7080     0.5110 oh         1 YO5      -0.623800
     11 O5           0.2880     0.6630    -0.4520 os         1 YO5      -0.341600
     12 O6           0.5720     3.4050     0.1680 oh         1 YO5      -0.525800
     13 P           -2.9180    -0.1120     0.0180 p5         1 YO5       1.141700
     14 O2P         -4.0880    -0.9100    -0.5830 o          1 YO5      -0.933167
     15 O3P         -2.8010    -0.2540     1.5440 o          1 YO5      -0.933167
     16 O1P         -2.8630     1.3350    -0.4760 o          1 YO5      -0.933167
     17 H71C        -1.3340    -0.8840    -1.7300 hc         1 YO5       0.025700
     18 H72C        -1.5690    -2.0680    -0.4680 hc         1 YO5       0.025700
     19 H1          -0.2150    -0.6170     1.0870 h1         1 YO5       0.072700
     20 H2           1.1440    -1.6480    -1.4410 h1         1 YO5       0.029700
     21 H5           1.3110     1.1840     1.2700 h1         1 YO5       0.057700
     22 H61C         2.5950     2.9660     0.0890 h1         1 YO5      -0.010300
     23 H62C         1.7020     2.6150    -1.3920 h1         1 YO5      -0.010300
     24 H4           2.7970     0.3290    -1.2580 h1         1 YO5       0.037700
     25 HA           4.2790     1.3620    -0.0190 ho         1 YO5       0.387000
     26 H3           2.2480    -1.1460     1.3470 h1         1 YO5       0.051700
     27 HB           4.1870    -1.7600     0.2730 ho         1 YO5       0.391000
     28 HC           1.4030    -3.4910    -0.0440 ho         1 YO5       0.374000
     29 H6O          0.7650     4.3160    -0.0680 ho         1 YO5       0.368000
@<TRIPOS>BOND
     1     1     2 1   
     2     1     5 1   
     3     1     8 1   
     4     1    20 1   
     5     2     3 1   
     6     2     9 1   
     7     2    26 1   
     8     3     4 1   
     9     3    10 1   
    10     3    24 1   
    11     4     6 1   
    12     4    11 1   
    13     4    21 1   
    14     5     7 1   
    15     5    11 1   
    16     5    19 1   
    17     6    12 1   
    18     6    22 1   
    19     6    23 1   
    20     7    13 1   
    21     7    17 1   
    22     7    18 1   
    23     8    28 1   
    24     9    27 1   
    25    10    25 1   
    26    12    29 1   
    27    13    14 1   
    28    13    15 1   
    29    13    16 1   
@<TRIPOS>SUBSTRUCTURE
     1 YO5         1 TEMP              0 ****  ****    0 ROOT
