@<TRIPOS>MOLECULE
YO5
   29    29     1     0     0
SMALL
No Charge or Current Charge


@<TRIPOS>ATOM
      1 C2           1.0030    -1.6690    -0.3700 c6         1 YO5       0.128300
      2 C3           2.3390    -1.2130     0.2850 c6         1 YO5       0.120300
      3 C4           2.6850     0.2420    -0.1390 c6         1 YO5       0.094300
      4 C5           1.4810     1.1750     0.2200 c6         1 YO5       0.150300
      5 C1          -0.1300    -0.6490    -0.0020 c6         1 YO5       0.216300
      6 C6           1.7100     2.6530    -0.2410 c3         1 YO5       0.178600
      7 C7          -1.4750    -0.9540    -0.7130 c3         1 YO5      -0.369400
      8 O2           0.7110    -3.0130     0.0590 oh         1 YO5      -0.687000
      9 O3           3.4150    -2.1010    -0.0660 oh         1 YO5      -0.686000
     10 O4           3.9150     0.6540     0.5020 oh         1 YO5      -0.746000
     11 O5           0.2700     0.6800    -0.4130 os         1 YO5      -0.388000
     12 O6           0.6050     3.5220     0.0510 oh         1 YO5      -0.648000
     13 P           -2.9590    -0.1930     0.0470 p5         1 YO5       1.299500
     14 O2P         -4.1460    -0.9940    -0.3700 o          1 YO5      -0.933167
     15 O3P         -2.8250    -0.2260     1.5320 o          1 YO5      -0.933167
     16 O1P         -3.1070     1.2090    -0.4360 o          1 YO5      -0.933167
     17 H71C        -1.4360    -0.6650    -1.7680 hc         1 YO5       0.025700
     18 H72C        -1.6730    -2.0310    -0.6920 hc         1 YO5       0.025700
     19 H1          -0.2800    -0.6620     1.0880 h1         1 YO5       0.072700
     20 H2           1.1330    -1.6550    -1.4620 h1         1 YO5       0.029700
     21 H5           1.3330     1.1760     1.3100 h1         1 YO5       0.057700
     22 H61C         2.6110     3.0390     0.2510 h1         1 YO5      -0.010300
     23 H62C         1.9030     2.6530    -1.3220 h1         1 YO5      -0.010300
     24 H4           2.8140     0.2600    -1.2320 h1         1 YO5       0.037700
     25 HA           4.2550     1.4400     0.0130 ho         1 YO5       0.486000
     26 H3           2.2010    -1.2190     1.3780 h1         1 YO5       0.051700
     27 HB           4.2290    -1.5740     0.1060 ho         1 YO5       0.430000
     28 HC           1.5910    -3.4560     0.0830 ho         1 YO5       0.473000
     29 H6O          0.8130     4.3930    -0.3560 ho         1 YO5       0.467000
@<TRIPOS>BOND
     1     1     2 1   
     2     1     5 1   
     3     1     8 1   
     4     1    20 1   
     5     2     3 1   
     6     2     9 1   
     7     2    26 1   
     8     3     4 1   
     9     3    10 1   
    10     3    24 1   
    11     4     6 1   
    12     4    11 1   
    13     4    21 1   
    14     5     7 1   
    15     5    11 1   
    16     5    19 1   
    17     6    12 1   
    18     6    22 1   
    19     6    23 1   
    20     7    13 1   
    21     7    17 1   
    22     7    18 1   
    23     8    28 1   
    24     9    27 1   
    25    10    25 1   
    26    12    29 1   
    27    13    14 1   
    28    13    15 1   
    29    13    16 1   
@<TRIPOS>SUBSTRUCTURE
     1 YO5         1 TEMP              0 ****  ****    0 ROOT
