@<TRIPOS>MOLECULE
YO6
   25    26     1     0     0
SMALL
No Charge or Current Charge


@<TRIPOS>ATOM
      1 C10          9.4530   -12.2910   -23.6240 ca         1 YO6       0.318000
      2 C11          6.9110   -11.2000   -23.0810 ca         1 YO6       0.113000
      3 O12         13.0110   -14.2670   -18.7220 o          1 YO6      -0.721500
      4 C15          8.2920   -12.9130   -24.1170 ca         1 YO6      -0.137500
      5 C16          7.0200   -12.3730   -23.8440 ca         1 YO6      -0.121500
      6 C17          8.0630   -10.5620   -22.5950 ca         1 YO6      -0.121500
      7 C1          11.8490   -12.9880   -23.2210 cc         1 YO6       0.708300
      8 C14          9.3320   -11.1070   -22.8700 ca         1 YO6      -0.137500
      9 C3          13.1940   -12.8560   -21.4810 cd         1 YO6       0.422300
     10 C5          13.5490   -12.4320   -20.0930 c3         1 YO6      -0.271700
     11 C6          14.0330   -13.4990   -22.3630 cc         1 YO6      -0.287000
     12 C8          13.9130   -13.6590   -19.2750 c          1 YO6       0.733000
     13 F13          5.6930   -10.6790   -22.8190 f          1 YO6      -0.195000
     14 N2          11.9380   -12.5570   -21.9860 nd         1 YO6      -0.685000
     15 N7          10.6970   -12.8420   -23.9290 nu         1 YO6      -0.935900
     16 O9          15.0730   -14.0390   -19.2980 o          1 YO6      -0.721500
     17 S4          13.2400   -13.7960   -23.8830 ss         1 YO6      -0.211400
     18 H24          8.3720   -13.8220   -24.7080 ha         1 YO6       0.140500
     19 H25          6.1250   -12.8600   -24.2220 ha         1 YO6       0.123500
     20 H26          7.9740    -9.6490   -22.0120 ha         1 YO6       0.123500
     21 H23         10.2210   -10.6000   -22.5050 ha         1 YO6       0.140500
     22 H18         14.4130   -11.7650   -20.1840 hc         1 YO6       0.040200
     23 H19         12.6680   -11.9430   -19.6600 hc         1 YO6       0.040200
     24 H20         15.0550   -13.8170   -22.2070 h4         1 YO6       0.151000
     25 H21         10.7090   -13.4310   -24.7560 hn         1 YO6       0.493000
@<TRIPOS>BOND
     1     1     4 ar  
     2     1     8 ar  
     3     1    15 1   
     4     2     5 ar  
     5     2     6 ar  
     6     2    13 1   
     7     3    12 1   
     8     4     5 ar  
     9     4    18 1   
    10     5    19 1   
    11     6     8 ar  
    12     6    20 1   
    13     7    14 2   
    14     7    15 1   
    15     7    17 1   
    16     8    21 1   
    17     9    10 1   
    18     9    11 2   
    19     9    14 1   
    20    10    12 1   
    21    10    22 1   
    22    10    23 1   
    23    11    17 1   
    24    11    24 1   
    25    12    16 1   
    26    15    25 1   
@<TRIPOS>SUBSTRUCTURE
     1 YO6         1 TEMP              0 ****  ****    0 ROOT
