@<TRIPOS>MOLECULE
YO6
   25    26     1     0     0
SMALL
abcg2


@<TRIPOS>ATOM
      1 C10          9.4770   -12.4630   -23.5630 ca         1 YO6       0.318000
      2 C11          6.9720   -11.4520   -22.9200 ca         1 YO6       0.113000
      3 O12         13.4660   -12.3560   -18.0730 o          1 YO6      -0.721500
      4 C15          8.3920   -12.6230   -24.4310 ca         1 YO6      -0.137500
      5 C16          7.1420   -12.1210   -24.1160 ca         1 YO6      -0.121500
      6 C17          8.0240   -11.2710   -22.0470 ca         1 YO6      -0.121500
      7 C1          11.8610   -13.0840   -23.2670 cc         1 YO6       0.708300
      8 C14          9.2790   -11.7720   -22.3660 ca         1 YO6      -0.137500
      9 C3          13.3920   -12.8040   -21.7030 cd         1 YO6       0.422300
     10 C5          13.8570   -12.2560   -20.4020 c3         1 YO6      -0.271700
     11 C6          14.1210   -13.5770   -22.5410 cc         1 YO6      -0.287000
     12 C8          13.2430   -12.9410   -19.1490 c          1 YO6       0.733000
     13 F13          5.7560   -10.9700   -22.6030 f          1 YO6      -0.195000
     14 N2          12.1160   -12.5230   -22.1310 nd         1 YO6      -0.685000
     15 N7          10.6920   -13.0150   -23.9590 nu         1 YO6      -0.935900
     16 O9          12.6160   -14.0010   -19.3220 o          1 YO6      -0.721500
     17 S4          13.1850   -14.0100   -23.9300 ss         1 YO6      -0.211400
     18 H24          8.5220   -13.1510   -25.3690 ha         1 YO6       0.140500
     19 H25          6.3120   -12.2570   -24.7970 ha         1 YO6       0.123500
     20 H26          7.8770   -10.7410   -21.1140 ha         1 YO6       0.123500
     21 H23         10.0970   -11.6270   -21.6780 ha         1 YO6       0.140500
     22 H18         14.9450   -12.3450   -20.3370 hc         1 YO6       0.040200
     23 H19         13.6380   -11.1860   -20.3560 hc         1 YO6       0.040200
     24 H20         15.1390   -13.9150   -22.4290 h4         1 YO6       0.151000
     25 H21         10.6760   -13.4860   -24.8510 hn         1 YO6       0.493000
@<TRIPOS>BOND
     1     1     4 ar  
     2     1     8 ar  
     3     1    15 1   
     4     2     5 ar  
     5     2     6 ar  
     6     2    13 1   
     7     3    12 1   
     8     4     5 ar  
     9     4    18 1   
    10     5    19 1   
    11     6     8 ar  
    12     6    20 1   
    13     7    14 2   
    14     7    15 1   
    15     7    17 1   
    16     8    21 1   
    17     9    10 1   
    18     9    11 2   
    19     9    14 1   
    20    10    12 1   
    21    10    22 1   
    22    10    23 1   
    23    11    17 1   
    24    11    24 1   
    25    12    16 1   
    26    15    25 1   
@<TRIPOS>SUBSTRUCTURE
     1 YO6         1 TEMP              0 ****  ****    0 ROOT
