@<TRIPOS>MOLECULE
YO7
   66    69     1     0     0
SMALL
bcc


@<TRIPOS>ATOM
      1 O3B         11.3270   -28.5970    25.3830 o          1 YO7      -0.832000
      2 PB          11.2340   -27.3250    24.6110 p5         1 YO7       1.461800
      3 O2B         12.3080   -26.2880    24.6010 o          1 YO7      -0.832000
      4 O1B         10.8900   -27.7910    23.0620 os         1 YO7      -0.547200
      5 C11         10.8000   -26.8600    22.0390 c6         1 YO7       0.378900
      6 C21          9.5850   -27.1660    21.1660 c6         1 YO7       0.102100
      7 O21          8.3700   -26.9920    21.8360 oh         1 YO7      -0.700800
      8 C31          9.5670   -26.2160    19.9690 c6         1 YO7       0.140100
      9 O31          8.5420   -26.5520    19.0660 oh         1 YO7      -0.617800
     10 C41         10.8980   -26.2470    19.2340 c6         1 YO7       0.118100
     11 O41         10.8750   -25.2550    18.2350 oh         1 YO7      -0.594800
     12 C51         12.0180   -25.9910    20.2540 c6         1 YO7       0.134100
     13 C61         13.4110   -25.9700    19.6430 c3         1 YO7       0.150100
     14 C71         14.5090   -25.8330    20.6960 c3         1 YO7       0.121400
     15 O71         14.2990   -24.6450    21.4220 oh         1 YO7      -0.573800
     16 O6A         13.6040   -27.1500    18.8960 oh         1 YO7      -0.591800
     17 O51         11.9660   -26.9750    21.2640 os         1 YO7      -0.413600
     18 O3A          9.8600   -26.5090    25.0280 os         1 YO7      -0.724800
     19 PA           8.3780   -27.1580    25.3060 p5         1 YO7       1.477800
     20 O1A          8.0690   -28.1550    24.2190 o          1 YO7      -0.834000
     21 O2A          8.2300   -27.5150    26.7470 o          1 YO7      -0.834000
     22 O5           7.4910   -25.8260    24.9560 os         1 YO7      -0.592200
     23 C5           6.9530   -24.9890    25.9540 c3         1 YO7       0.210400
     24 C4           6.2220   -23.8340    25.3030 c5         1 YO7       0.108100
     25 C3           5.2670   -24.2320    24.1700 c5         1 YO7       0.083100
     26 O3           4.1860   -23.3420    24.0520 oh         1 YO7      -0.595800
     27 C2           6.1570   -24.0490    22.9370 c5         1 YO7       0.109100
     28 O2           5.4970   -23.7840    21.7370 oh         1 YO7      -0.577800
     29 O4           7.1380   -22.8960    24.7270 os         1 YO7      -0.406600
     30 C1           6.9950   -22.8340    23.3420 c5         1 YO7       0.274800
     31 N9           8.3160   -22.8160    22.7460 na         1 YO7      -0.201900
     32 C10          8.6760   -22.1840    21.5960 cc         1 YO7       0.095800
     33 N3           7.8860   -21.4320    20.8160 nc         1 YO7      -0.676100
     34 C12          8.5000   -20.9580    19.7610 cd         1 YO7       0.698800
     35 N2           7.8200   -20.2170    18.8720 nv         1 YO7      -0.952800
     36 C8           9.4390   -23.4560    23.2080 cc         1 YO7       0.459400
     37 N7          10.4740   -23.2650    22.4470 nd         1 YO7      -0.599000
     38 C9          10.0170   -22.4770    21.4240 cd         1 YO7       0.167800
     39 C6          10.6880   -21.9770    20.2720 c          1 YO7       0.665000
     40 O6          11.8480   -22.1390    19.9330 o          1 YO7      -0.606500
     41 N1           9.8150   -21.2110    19.4870 ns         1 YO7      -0.525400
     42 H2          10.7170   -25.8330    22.4230 h2         1 YO7       0.048700
     43 H3           9.6980   -28.1970    20.7880 h1         1 YO7       0.039700
     44 H4           8.3210   -27.5320    22.6620 ho         1 YO7       0.506000
     45 H5           9.4190   -25.1930    20.3580 h1         1 YO7       0.046700
     46 H6           7.7160   -26.5750    19.5610 ho         1 YO7       0.413000
     47 H7          11.0300   -27.2470    18.8000 h1         1 YO7       0.050700
     48 H8          11.5440   -25.4650    17.5770 ho         1 YO7       0.383000
     49 H9          11.8490   -24.9950    20.6910 h1         1 YO7       0.092700
     50 H10         13.4540   -25.0820    18.9960 h1         1 YO7       0.030700
     51 H11         15.4780   -25.8180    20.1770 h1         1 YO7       0.016700
     52 H12         14.5050   -26.7180    21.3410 h1         1 YO7       0.016700
     53 H13         14.8750   -24.6530    22.1910 ho         1 YO7       0.409000
     54 H14         14.3840   -27.0400    18.3440 ho         1 YO7       0.374000
     55 H16          6.2350   -25.5300    26.5790 h1         1 YO7       0.030200
     56 H17          7.7290   -24.5930    26.6170 h1         1 YO7       0.030200
     57 H18          5.6710   -23.3210    26.1000 h1         1 YO7       0.036700
     58 H19          4.9230   -25.2680    24.2800 h1         1 YO7       0.072700
     59 H20          3.6330   -23.4310    24.8350 ho         1 YO7       0.384000
     60 H21          6.8170   -24.9160    22.8490 h1         1 YO7       0.126700
     61 H22          5.1830   -24.6160    21.3700 ho         1 YO7       0.407000
     62 H23          6.4980   -21.9100    23.0250 h2         1 YO7       0.084700
     63 H24          6.8980   -19.9110    19.1360 hn         1 YO7       0.428800
     64 H25          8.2950   -19.6610    18.1820 hn         1 YO7       0.428800
     65 H26          9.4290   -24.0480    24.1090 h5         1 YO7       0.118100
     66 H27         10.2150   -20.8300    18.6380 hn         1 YO7       0.301500
@<TRIPOS>BOND
     1     1     2 1   
     2     2     3 1   
     3     2     4 1   
     4     2    18 1   
     5     4     5 1   
     6     5     6 1   
     7     5    17 1   
     8     5    42 1   
     9     6     7 1   
    10     6     8 1   
    11     6    43 1   
    12     7    44 1   
    13     8     9 1   
    14     8    10 1   
    15     8    45 1   
    16     9    46 1   
    17    10    11 1   
    18    10    12 1   
    19    10    47 1   
    20    11    48 1   
    21    12    13 1   
    22    12    17 1   
    23    12    49 1   
    24    13    14 1   
    25    13    16 1   
    26    13    50 1   
    27    14    15 1   
    28    14    51 1   
    29    14    52 1   
    30    15    53 1   
    31    16    54 1   
    32    18    19 1   
    33    19    20 1   
    34    19    21 1   
    35    19    22 1   
    36    22    23 1   
    37    23    24 1   
    38    23    55 1   
    39    23    56 1   
    40    24    25 1   
    41    24    29 1   
    42    24    57 1   
    43    25    26 1   
    44    25    27 1   
    45    25    58 1   
    46    26    59 1   
    47    27    28 1   
    48    27    30 1   
    49    27    60 1   
    50    28    61 1   
    51    29    30 1   
    52    30    31 1   
    53    30    62 1   
    54    31    32 1   
    55    31    36 1   
    56    32    33 1   
    57    32    38 2   
    58    33    34 2   
    59    34    35 1   
    60    34    41 1   
    61    35    63 1   
    62    35    64 1   
    63    36    37 2   
    64    36    65 1   
    65    37    38 1   
    66    38    39 1   
    67    39    40 2   
    68    39    41 1   
    69    41    66 1   
@<TRIPOS>SUBSTRUCTURE
     1 YO7         1 TEMP              0 ****  ****    0 ROOT
