@<TRIPOS>MOLECULE
YO7
   66    69     1     0     0
SMALL
No Charge or Current Charge


@<TRIPOS>ATOM
      1 O3B         11.3850   -27.1360    25.8500 o          1 YO7      -0.832000
      2 PB          11.0250   -26.4320    24.5860 p5         1 YO7       1.461800
      3 O2B         11.9780   -25.3100    24.3410 o          1 YO7      -0.832000
      4 O1B         10.9910   -27.4400    23.3370 os         1 YO7      -0.570400
      5 C11         11.0550   -26.8820    22.0310 c6         1 YO7       0.425300
      6 C21         10.0010   -27.5710    21.0870 c6         1 YO7       0.125300
      7 O21          8.6180   -27.4280    21.5100 oh         1 YO7      -0.823000
      8 C31         10.1730   -26.9940    19.6550 c6         1 YO7       0.163300
      9 O31          9.2390   -27.6300    18.7660 oh         1 YO7      -0.680000
     10 C41         11.6370   -27.1750    19.1580 c6         1 YO7       0.141300
     11 O41         11.7760   -26.5930    17.8460 oh         1 YO7      -0.717000
     12 C51         12.6180   -26.5370    20.1970 c6         1 YO7       0.157300
     13 C61         14.1300   -26.7610    19.8200 c3         1 YO7       0.173300
     14 C71         15.1110   -25.9550    20.7230 c3         1 YO7       0.144600
     15 O71         14.8740   -24.5420    20.6200 oh         1 YO7      -0.636000
     16 O6A         14.5010   -28.1610    19.8520 oh         1 YO7      -0.714000
     17 O51         12.3800   -27.1120    21.5130 os         1 YO7      -0.460000
     18 O3A          9.5470   -25.8810    24.5700 os         1 YO7      -0.724800
     19 PA           8.4360   -26.9240    24.9570 p5         1 YO7       1.477800
     20 O1A          8.3130   -28.0120    23.9450 o          1 YO7      -0.834000
     21 O2A          8.4660   -27.4110    26.3650 o          1 YO7      -0.834000
     22 O5           7.1990   -25.9190    24.7560 os         1 YO7      -0.615400
     23 C5           6.9010   -24.9820    25.8000 c3         1 YO7       0.233600
     24 C4           6.0490   -23.7940    25.2520 c5         1 YO7       0.131300
     25 C3           4.8380   -24.1740    24.3300 c5         1 YO7       0.106300
     26 O3           3.7840   -23.1850    24.3490 oh         1 YO7      -0.718000
     27 C2           5.5250   -24.1930    22.9360 c5         1 YO7       0.132300
     28 O2           4.5310   -24.0520    21.9080 oh         1 YO7      -0.700000
     29 O4           6.8790   -22.8970    24.4690 os         1 YO7      -0.453000
     30 C1           6.4800   -22.9570    23.0780 c5         1 YO7       0.327300
     31 N9           7.6730   -22.9290    22.2370 na         1 YO7      -0.180500
     32 C10          8.1360   -21.8710    21.5000 cc         1 YO7       0.110400
     33 N3           7.6120   -20.5960    21.4100 nc         1 YO7      -0.676100
     34 C12          8.3000   -19.8140    20.6120 cd         1 YO7       0.698800
     35 N2           7.8490   -18.5770    20.4930 nv         1 YO7      -1.063200
     36 C8           8.5190   -23.9900    21.9840 cc         1 YO7       0.459400
     37 N7           9.4920   -23.6450    21.1430 nd         1 YO7      -0.599000
     38 C9           9.2550   -22.3120    20.8340 cd         1 YO7       0.102500
     39 C6           9.9880   -21.3670    19.9400 c          1 YO7       0.522500
     40 O6          10.9900   -21.6300    19.2890 o          1 YO7      -0.531000
     41 N1           9.4090   -20.1300    19.9120 ns         1 YO7      -0.458400
     42 H2          10.8510   -25.8000    22.0630 h2         1 YO7       0.048700
     43 H3          10.2540   -28.6420    21.0510 h1         1 YO7       0.039700
     44 H4           8.5590   -27.7500    22.4800 ho         1 YO7       0.605000
     45 H5           9.9580   -25.9160    19.6980 h1         1 YO7       0.046700
     46 H6           8.4520   -27.7870    19.3410 ho         1 YO7       0.452000
     47 H7          11.8480   -28.2540    19.1070 h1         1 YO7       0.050700
     48 H8          10.9430   -26.8360    17.3760 ho         1 YO7       0.482000
     49 H9          12.4300   -25.4540    20.2410 h1         1 YO7       0.092700
     50 H10         14.2630   -26.3840    18.7970 h1         1 YO7       0.030700
     51 H11         16.1430   -26.1780    20.4210 h1         1 YO7       0.016700
     52 H12         14.9930   -26.2790    21.7660 h1         1 YO7       0.016700
     53 H13         15.5010   -24.0990    21.2340 ho         1 YO7       0.448000
     54 H14         15.4010   -28.2300    19.4610 ho         1 YO7       0.473000
     55 H16          6.3280   -25.4790    26.5930 h1         1 YO7       0.030200
     56 H17          7.8180   -24.5790    26.2510 h1         1 YO7       0.030200
     57 H18          5.6970   -23.2360    26.1290 h1         1 YO7       0.036700
     58 H19          4.4390   -25.1660    24.5900 h1         1 YO7       0.072700
     59 H20          3.4090   -23.1690    25.2610 ho         1 YO7       0.483000
     60 H21          6.0980   -25.1190    22.7900 h1         1 YO7       0.126700
     61 H22          3.7880   -23.6000    22.3840 ho         1 YO7       0.506000
     62 H23          5.9160   -22.0460    22.8410 h2         1 YO7       0.084700
     63 H24          7.1480   -18.3290    21.1810 hn         1 YO7       0.484000
     64 H25          8.5220   -17.8530    20.2730 hn         1 YO7       0.484000
     65 H26          8.3790   -24.9620    22.4390 h5         1 YO7       0.118100
     66 H27          9.8410   -19.4440    19.3150 hn         1 YO7       0.301500
@<TRIPOS>BOND
     1     1     2 1   
     2     2     3 1   
     3     2     4 1   
     4     2    18 1   
     5     4     5 1   
     6     5     6 1   
     7     5    17 1   
     8     5    42 1   
     9     6     7 1   
    10     6     8 1   
    11     6    43 1   
    12     7    44 1   
    13     8     9 1   
    14     8    10 1   
    15     8    45 1   
    16     9    46 1   
    17    10    11 1   
    18    10    12 1   
    19    10    47 1   
    20    11    48 1   
    21    12    13 1   
    22    12    17 1   
    23    12    49 1   
    24    13    14 1   
    25    13    16 1   
    26    13    50 1   
    27    14    15 1   
    28    14    51 1   
    29    14    52 1   
    30    15    53 1   
    31    16    54 1   
    32    18    19 1   
    33    19    20 1   
    34    19    21 1   
    35    19    22 1   
    36    22    23 1   
    37    23    24 1   
    38    23    55 1   
    39    23    56 1   
    40    24    25 1   
    41    24    29 1   
    42    24    57 1   
    43    25    26 1   
    44    25    27 1   
    45    25    58 1   
    46    26    59 1   
    47    27    28 1   
    48    27    30 1   
    49    27    60 1   
    50    28    61 1   
    51    29    30 1   
    52    30    31 1   
    53    30    62 1   
    54    31    32 1   
    55    31    36 1   
    56    32    33 1   
    57    32    38 2   
    58    33    34 2   
    59    34    35 1   
    60    34    41 1   
    61    35    63 1   
    62    35    64 1   
    63    36    37 2   
    64    36    65 1   
    65    37    38 1   
    66    38    39 1   
    67    39    40 2   
    68    39    41 1   
    69    41    66 1   
@<TRIPOS>SUBSTRUCTURE
     1 YO7         1 TEMP              0 ****  ****    0 ROOT
