@<TRIPOS>MOLECULE
YO9
   48    51     1     0     0
SMALL
No Charge or Current Charge


@<TRIPOS>ATOM
      1 C01        -12.4830   -62.0050   -14.3280 ca         1 YO9      -0.147400
      2 C02        -11.7930   -62.6180   -15.3480 ca         1 YO9       0.226900
      3 C04        -10.3050   -63.4420   -13.8580 ca         1 YO9       0.388900
      4 C06        -12.0440   -62.1610   -13.0080 ca         1 YO9       0.160900
      5 C09        -12.1430   -64.2440   -18.0180 ca         1 YO9      -0.047800
      6 C10        -11.7860   -64.8110   -19.2560 ca         1 YO9      -0.094000
      7 C11        -11.3710   -64.0050   -20.3320 ca         1 YO9      -0.054800
      8 C12        -11.3270   -62.6110   -20.1590 ca         1 YO9      -0.094000
      9 C13        -11.6700   -62.0190   -18.9290 ca         1 YO9      -0.047800
     10 C14        -12.0690   -62.8360   -17.8410 ca         1 YO9       0.061600
     11 C16        -11.5470   -60.5020   -18.7940 c3         1 YO9      -0.052300
     12 C18        -10.9920   -64.5900   -21.6520 ce         1 YO9      -0.100200
     13 C19        -10.8610   -65.9010   -22.0100 cf         1 YO9      -0.109700
     14 C20         -8.1960   -64.8590   -14.2890 ca         1 YO9       0.345000
     15 C21         -6.8960   -64.9800   -13.7700 ca         1 YO9      -0.167000
     16 C22         -5.9090   -65.7030   -14.4640 ca         1 YO9      -0.038500
     17 C23         -6.2200   -66.3230   -15.6880 ca         1 YO9      -0.058000
     18 C24         -7.5240   -66.2190   -16.2060 ca         1 YO9      -0.038500
     19 C25         -8.5050   -65.4940   -15.5070 ca         1 YO9      -0.167000
     20 C26         -5.2150   -67.0630   -16.4000 cg         1 YO9       0.330000
     21 C27        -13.5170   -61.4070   -16.3070 c          1 YO9       0.606000
     22 C29        -10.4860   -66.3340   -23.3170 ch         1 YO9       0.272700
     23 N03        -10.6650   -63.3190   -15.1580 nb         1 YO9      -0.223000
     24 N05        -10.9310   -62.9010   -12.7800 nb         1 YO9      -0.242000
     25 N07        -13.5200   -61.2840   -14.9410 ns         1 YO9      -0.489600
     26 N08         -9.1380   -64.1350   -13.5510 nu         1 YO9      -0.924900
     27 N17        -12.4010   -62.2270   -16.5800 n          1 YO9      -0.301500
     28 N30        -10.1780   -66.6490   -24.3970 n1         1 YO9      -0.449000
     29 N31         -4.3960   -67.6700   -16.9700 n1         1 YO9      -0.459000
     30 O28        -14.3310   -60.9440   -17.0870 o          1 YO9      -0.524000
     31 H1         -12.5430   -61.6990   -12.1580 h4         1 YO9       0.036100
     32 H2         -11.8540   -65.8880   -19.3780 ha         1 YO9       0.120000
     33 H3         -11.0110   -61.9790   -20.9850 ha         1 YO9       0.120000
     34 H4         -11.8800   -65.5450   -16.2850 hc         1 YO9       0.051367
     35 H5         -13.4360   -64.6920   -16.3070 hc         1 YO9       0.051367
     36 H6         -13.1650   -66.0600   -17.3760 hc         1 YO9       0.051367
     37 H7         -12.5200   -60.0150   -18.9180 hc         1 YO9       0.051367
     38 H8         -11.1430   -60.2120   -17.8160 hc         1 YO9       0.051367
     39 H9         -10.8730   -60.0840   -19.5510 hc         1 YO9       0.051367
     40 H10        -10.7910   -63.8430   -22.4230 ha         1 YO9       0.186000
     41 H11        -11.0390   -66.6910   -21.2850 ha         1 YO9       0.202000
     42 H12         -6.6410   -64.5040   -12.8270 ha         1 YO9       0.136500
     43 H13         -4.9050   -65.7790   -14.0480 ha         1 YO9       0.125500
     44 H14         -7.7810   -66.7040   -17.1470 ha         1 YO9       0.125500
     45 H15         -9.5070   -65.4500   -15.9150 ha         1 YO9       0.136500
     46 H16        -14.2410   -60.7610   -14.4470 hn         1 YO9       0.476000
     47 H17         -8.8680   -64.0020   -12.5770 hn         1 YO9       0.516000
     48 C15        -12.6820   -65.1800   -16.9350 c3         1 YO9      -0.052300
@<TRIPOS>BOND
     1     1     2 ar  
     2     1     4 ar  
     3     1    25 1   
     4     2    23 ar  
     5     2    27 1   
     6     3    23 ar  
     7     3    24 ar  
     8     3    26 1   
     9     4    24 ar  
    10     4    31 1   
    11     5     6 ar  
    12     5    10 ar  
    13     5    48 1   
    14     6     7 ar  
    15     6    32 1   
    16     7     8 ar  
    17     7    12 1   
    18     8     9 ar  
    19     8    33 1   
    20     9    10 ar  
    21     9    11 1   
    22    10    27 1   
    23    11    37 1   
    24    11    38 1   
    25    11    39 1   
    26    12    13 2   
    27    12    40 1   
    28    13    22 1   
    29    13    41 1   
    30    14    15 ar  
    31    14    19 ar  
    32    14    26 1   
    33    15    16 ar  
    34    15    42 1   
    35    16    17 ar  
    36    16    43 1   
    37    17    18 ar  
    38    17    20 1   
    39    18    19 ar  
    40    18    44 1   
    41    19    45 1   
    42    20    29 3   
    43    21    25 1   
    44    21    27 1   
    45    21    30 2   
    46    22    28 3   
    47    25    46 1   
    48    26    47 1   
    49    34    48 1   
    50    35    48 1   
    51    36    48 1   
@<TRIPOS>SUBSTRUCTURE
     1 YO9         1 TEMP              0 ****  ****    0 ROOT
