@<TRIPOS>MOLECULE
YO9
   48    51     1     0     0
SMALL
abcg2


@<TRIPOS>ATOM
      1 C01        -12.4610   -61.9020   -14.3860 ca         1 YO9      -0.147400
      2 C02        -11.7740   -62.5890   -15.3850 ca         1 YO9       0.226900
      3 C04        -10.1890   -63.2060   -13.9670 ca         1 YO9       0.388900
      4 C06        -11.8930   -61.9220   -13.1360 ca         1 YO9       0.160900
      5 C09        -12.2320   -64.3790   -17.9910 ca         1 YO9      -0.047800
      6 C10        -11.8210   -64.9060   -19.2060 ca         1 YO9      -0.094000
      7 C11        -11.3100   -64.0870   -20.2130 ca         1 YO9      -0.054800
      8 C12        -11.2140   -62.7160   -19.9860 ca         1 YO9      -0.094000
      9 C13        -11.6000   -62.1500   -18.7780 ca         1 YO9      -0.047800
     10 C14        -12.1110   -62.9990   -17.7980 ca         1 YO9       0.061600
     11 C16        -11.4540   -60.6760   -18.5450 c3         1 YO9      -0.052300
     12 C18        -10.8580   -64.6020   -21.5010 ce         1 YO9      -0.100200
     13 C19        -10.8120   -65.8910   -21.8650 cf         1 YO9      -0.109700
     14 C20         -8.1970   -64.6480   -14.4450 ca         1 YO9       0.345000
     15 C21         -7.0530   -65.1650   -13.8140 ca         1 YO9      -0.167000
     16 C22         -6.1650   -65.9670   -14.4910 ca         1 YO9      -0.038500
     17 C23         -6.3920   -66.2830   -15.8340 ca         1 YO9      -0.058000
     18 C24         -7.5230   -65.7750   -16.4690 ca         1 YO9      -0.038500
     19 C25         -8.4180   -64.9670   -15.7930 ca         1 YO9      -0.167000
     20 C26         -5.4840   -67.1150   -16.5460 cg         1 YO9       0.330000
     21 C27        -13.6290   -61.6860   -16.3050 c          1 YO9       0.606000
     22 C29        -10.3480   -66.2740   -23.1500 ch         1 YO9       0.272700
     23 N03        -10.6510   -63.2360   -15.2170 nb         1 YO9      -0.223000
     24 N05        -10.7530   -62.5840   -12.9360 nb         1 YO9      -0.242000
     25 N07        -13.5820   -61.3620   -14.9760 ns         1 YO9      -0.489600
     26 N08         -9.0230   -63.8640   -13.6710 nu         1 YO9      -0.924900
     27 N17        -12.4810   -62.4530   -16.5450 n          1 YO9      -0.301500
     28 N30         -9.9750   -66.6090   -24.1890 n1         1 YO9      -0.449000
     29 N31         -4.7520   -67.7900   -17.1280 n1         1 YO9      -0.459000
     30 O28        -14.4690   -61.3920   -17.1230 o          1 YO9      -0.524000
     31 H1         -12.3360   -61.4200   -12.2840 h4         1 YO9       0.036100
     32 H2         -11.9130   -65.9740   -19.3590 ha         1 YO9       0.120000
     33 H3         -10.8130   -62.0750   -20.7630 ha         1 YO9       0.120000
     34 H4         -12.0650   -65.3920   -16.1030 hc         1 YO9       0.051367
     35 H5         -13.7020   -64.8840   -16.4920 hc         1 YO9       0.051367
     36 H6         -12.9870   -66.2660   -17.3180 hc         1 YO9       0.051367
     37 H7         -12.4220   -60.1740   -18.5540 hc         1 YO9       0.051367
     38 H8         -10.9850   -60.4630   -17.5850 hc         1 YO9       0.051367
     39 H9         -10.8430   -60.2240   -19.3240 hc         1 YO9       0.051367
     40 H10        -10.5290   -63.8530   -22.2140 ha         1 YO9       0.186000
     41 H11        -11.1130   -66.7020   -21.2140 ha         1 YO9       0.202000
     42 H12         -6.8640   -64.9290   -12.7730 ha         1 YO9       0.136500
     43 H13         -5.2920   -66.3500   -13.9800 ha         1 YO9       0.125500
     44 H14         -7.7130   -66.0110   -17.5080 ha         1 YO9       0.125500
     45 H15         -9.2800   -64.5890   -16.3150 ha         1 YO9       0.136500
     46 H16        -14.2910   -60.8080   -14.5200 hn         1 YO9       0.476000
     47 H17         -8.7470   -63.7570   -12.7060 hn         1 YO9       0.516000
     48 C15        -12.7780   -65.2750   -16.9200 c3         1 YO9      -0.052300
@<TRIPOS>BOND
     1     1     2 ar  
     2     1     4 ar  
     3     1    25 1   
     4     2    23 ar  
     5     2    27 1   
     6     3    23 ar  
     7     3    24 ar  
     8     3    26 1   
     9     4    24 ar  
    10     4    31 1   
    11     5     6 ar  
    12     5    10 ar  
    13     5    48 1   
    14     6     7 ar  
    15     6    32 1   
    16     7     8 ar  
    17     7    12 1   
    18     8     9 ar  
    19     8    33 1   
    20     9    10 ar  
    21     9    11 1   
    22    10    27 1   
    23    11    37 1   
    24    11    38 1   
    25    11    39 1   
    26    12    13 2   
    27    12    40 1   
    28    13    22 1   
    29    13    41 1   
    30    14    15 ar  
    31    14    19 ar  
    32    14    26 1   
    33    15    16 ar  
    34    15    42 1   
    35    16    17 ar  
    36    16    43 1   
    37    17    18 ar  
    38    17    20 1   
    39    18    19 ar  
    40    18    44 1   
    41    19    45 1   
    42    20    29 3   
    43    21    25 1   
    44    21    27 1   
    45    21    30 2   
    46    22    28 3   
    47    25    46 1   
    48    26    47 1   
    49    34    48 1   
    50    35    48 1   
    51    36    48 1   
@<TRIPOS>SUBSTRUCTURE
     1 YO9         1 TEMP              0 ****  ****    0 ROOT
