@<TRIPOS>MOLECULE
YOA
   93    95     1     0     0
SMALL
abcg2


@<TRIPOS>ATOM
      1 C11         -1.8990    61.7390    -9.8080 c5         1 YOA       0.293300
      2 C13         -3.9620    61.1120    -8.9380 c5         1 YOA       0.126300
      3 C14         -4.8560    59.8990    -9.1020 c3         1 YOA       0.223800
      4 C17         -4.5030    56.1860    -8.0200 c3         1 YOA      -0.297400
      5 C18         -3.7440    54.9070    -8.3700 c3         1 YOA       0.052300
      6 C19         -2.6140    54.5620    -7.3360 c3         1 YOA       0.188500
      7 C02          0.4970    61.3250   -13.9840 ca         1 YOA       0.452900
      8 C04          0.9540    63.1770   -12.6960 ca         1 YOA       0.182900
      9 C06         -0.5320    61.7740   -11.8970 ca         1 YOA       0.113500
     10 C07         -0.4140    60.9280   -12.9880 ca         1 YOA      -0.094600
     11 C09         -1.8400    60.0340   -11.7110 cc         1 YOA       0.423700
     12 C21         -1.2680    54.7580    -8.0320 c3         1 YOA       0.076600
     13 C25         -6.6450    52.8350   -10.5460 c3         1 YOA       0.114000
     14 C27         -6.0020    50.5170   -10.0350 c          1 YOA       0.615100
     15 C28         -5.4500    49.2420   -10.6330 c3         1 YOA      -0.200400
     16 C29         -6.5650    48.4400   -11.3270 c3         1 YOA       0.096000
     17 C31         -8.6940    49.0680   -10.3000 c          1 YOA       0.566100
     18 C32         -9.4140    49.0230    -8.9480 c3         1 YOA       0.096300
     19 C34        -10.6680    48.1190    -8.9270 c3         1 YOA      -0.043000
     20 C35        -10.3110    46.6490    -9.1450 c3         1 YOA      -0.083600
     21 C36        -11.6490    48.5720   -10.0090 c3         1 YOA      -0.083600
     22 C37        -11.3060    48.3240    -7.5440 c3         1 YOA       0.191600
     23 C53         -4.2080    62.1920    -9.9870 c5         1 YOA       0.152300
     24 C55         -2.8620    62.9220   -10.0020 c5         1 YOA       0.097300
     25 N01          0.7090    60.6160   -15.0940 nv         1 YOA      -1.064900
     26 N03          1.1710    62.4660   -13.7990 nb         1 YOA      -0.302000
     27 N05          0.1280    62.9140   -11.6980 nb         1 YOA      -0.239000
     28 N08         -1.2400    59.8440   -12.8510 nd         1 YOA      -0.556100
     29 N10         -1.4560    61.1880   -11.0840 na         1 YOA      -0.313300
     30 N15         -4.6610    58.8660    -8.0980 n7         1 YOA      -0.912300
     31 N20         -2.6550    53.2590    -6.7150 n8         1 YOA      -0.989200
     32 N26         -5.9970    51.5830   -10.8490 ns         1 YOA      -0.488900
     33 N30         -7.6740    48.1940   -10.4350 ns         1 YOA      -0.486900
     34 O12         -2.5910    60.7600    -9.0940 os         1 YOA      -0.447000
     35 O33         -8.5370    48.6220    -7.9250 oh         1 YOA      -0.669000
     36 O38        -12.5190    47.5850    -7.4340 os         1 YOA      -0.383100
     37 O40        -12.5200    47.5110    -4.8690 oh         1 YOA      -0.540100
     38 O48        -11.5240    45.6870    -6.0190 oh         1 YOA      -0.540100
     39 O49         -9.0110    49.8740   -11.1600 o          1 YOA      -0.601100
     40 O50         -6.4750    50.5510    -8.9020 o          1 YOA      -0.632100
     41 O54         -5.3190    62.9590    -9.6420 oh         1 YOA      -0.688000
     42 O56         -2.8170    63.7940    -8.9110 oh         1 YOA      -0.692000
     43 P39        -12.8820    46.5950    -6.1830 p3         1 YOA       0.255300
     44 S16         -3.5270    57.6820    -8.2520 s6         1 YOA       1.190100
     45 S22          0.1670    54.7500    -6.9200 sh         1 YOA      -0.422800
     46 S23         -4.9320    53.5280    -8.5030 ss         1 YOA      -0.406000
     47 H1          -0.9990    62.0440    -9.2650 h2         1 YOA       0.109700
     48 H2          -4.1150    61.5320    -7.9350 h1         1 YOA       0.089700
     49 H3          -4.7450    59.4640   -10.0950 h1         1 YOA       0.076200
     50 H4          -5.8920    60.2340    -9.0220 h1         1 YOA       0.076200
     51 H5          -5.3650    56.3240    -8.6740 h1         1 YOA       0.101700
     52 H6          -4.8550    56.1770    -6.9860 h1         1 YOA       0.101700
     53 H7          -3.3130    55.0150    -9.3700 h1         1 YOA       0.082700
     54 H8          -2.6860    55.2870    -6.5230 h1         1 YOA       0.075700
     55 H9           1.5330    64.0910   -12.6100 h5         1 YOA       0.045100
     56 H10         -2.5520    59.3560   -11.2690 h5         1 YOA       0.094800
     57 H11         -1.2510    55.6840    -8.6040 h1         1 YOA       0.070200
     58 H12         -1.1030    53.9480    -8.7470 h1         1 YOA       0.070200
     59 H13         -6.2600    54.8650   -10.0290 h1         1 YOA       0.062200
     60 H14         -4.9060    54.0790   -10.8460 h1         1 YOA       0.062200
     61 H15         -7.4110    52.6640    -9.7900 h1         1 YOA       0.070700
     62 H16         -7.1560    53.1800   -11.4460 h1         1 YOA       0.070700
     63 H17         -4.6610    49.4460   -11.3590 hc         1 YOA       0.070700
     64 H18         -5.0180    48.6430    -9.8300 hc         1 YOA       0.070700
     65 H19         -6.9250    48.9680   -12.2070 h1         1 YOA       0.066200
     66 H20         -6.1570    47.4880   -11.6640 h1         1 YOA       0.066200
     67 H21         -9.7590    50.0560    -8.7870 h1         1 YOA       0.061700
     68 H22        -11.2100    46.0330    -9.1190 hc         1 YOA       0.040533
     69 H23         -9.8510    46.4950   -10.1220 hc         1 YOA       0.040533
     70 H24         -9.6290    46.2710    -8.3840 hc         1 YOA       0.040533
     71 H25        -11.8810    49.6360    -9.9240 hc         1 YOA       0.040533
     72 H26        -11.2570    48.3940   -11.0100 hc         1 YOA       0.040533
     73 H27        -12.5840    48.0190    -9.9290 hc         1 YOA       0.040533
     74 H28        -10.5990    48.0430    -6.7630 h1         1 YOA       0.050200
     75 H29        -11.5420    49.3850    -7.4090 h1         1 YOA       0.050200
     76 H30         -4.3400    61.7120   -10.9680 h1         1 YOA       0.049700
     77 H31         -2.6750    63.4390   -10.9500 h1         1 YOA       0.075700
     78 H32          1.3850    60.9240   -15.7720 hn         1 YOA       0.508000
     79 H33          0.2350    59.7440   -15.2540 hn         1 YOA       0.508000
     80 H34         -4.8010    59.1560    -7.1370 hn         1 YOA       0.495000
     81 H35         -3.4610    53.1640    -6.1120 hn         1 YOA       0.415000
     82 H36         -2.7050    52.5210    -7.4060 hn         1 YOA       0.415000
     83 H38         -5.5790    51.4890   -11.7610 hn         1 YOA       0.315500
     84 H39         -7.4610    47.6350    -9.6220 hn         1 YOA       0.322500
     85 H40         -7.7810    49.2270    -7.9320 ho         1 YOA       0.477000
     86 H41        -13.3000    47.9740    -4.5400 ho         1 YOA       0.468000
     87 H42        -11.5520    44.9060    -6.5850 ho         1 YOA       0.468000
     88 H43         -5.5630    63.5090   -10.3920 ho         1 YOA       0.518000
     89 H44         -1.9880    64.2840    -8.9430 ho         1 YOA       0.519000
     90 H45         -0.0080    55.9790    -6.4200 hs         1 YOA       0.219800
     91 C24         -5.6920    53.9360   -10.1020 c3         1 YOA       0.038600
     92 O51         -2.5440    57.7850    -7.1810 o          1 YOA      -0.541000
     93 O52         -3.0620    57.6750    -9.6340 o          1 YOA      -0.541000
@<TRIPOS>BOND
     1     1    24 1   
     2     1    29 1   
     3     1    34 1   
     4     1    47 1   
     5     2     3 1   
     6     2    23 1   
     7     2    34 1   
     8     2    48 1   
     9     3    30 1   
    10     3    49 1   
    11     3    50 1   
    12     4     5 1   
    13     4    44 1   
    14     4    51 1   
    15     4    52 1   
    16     5     6 1   
    17     5    46 1   
    18     5    53 1   
    19     6    12 1   
    20     6    31 1   
    21     6    54 1   
    22     7    10 ar  
    23     7    25 1   
    24     7    26 ar  
    25     8    26 ar  
    26     8    27 ar  
    27     8    55 1   
    28     9    10 ar  
    29     9    27 ar  
    30     9    29 1   
    31    10    28 1   
    32    11    28 2   
    33    11    29 1   
    34    11    56 1   
    35    12    45 1   
    36    12    57 1   
    37    12    58 1   
    38    13    32 1   
    39    13    61 1   
    40    13    62 1   
    41    13    91 1   
    42    14    15 1   
    43    14    32 1   
    44    14    40 2   
    45    15    16 1   
    46    15    63 1   
    47    15    64 1   
    48    16    33 1   
    49    16    65 1   
    50    16    66 1   
    51    17    18 1   
    52    17    33 1   
    53    17    39 2   
    54    18    19 1   
    55    18    35 1   
    56    18    67 1   
    57    19    20 1   
    58    19    21 1   
    59    19    22 1   
    60    20    68 1   
    61    20    69 1   
    62    20    70 1   
    63    21    71 1   
    64    21    72 1   
    65    21    73 1   
    66    22    36 1   
    67    22    74 1   
    68    22    75 1   
    69    23    24 1   
    70    23    41 1   
    71    23    76 1   
    72    24    42 1   
    73    24    77 1   
    74    25    78 1   
    75    25    79 1   
    76    30    44 1   
    77    30    80 1   
    78    31    81 1   
    79    31    82 1   
    80    32    83 1   
    81    33    84 1   
    82    35    85 1   
    83    36    43 1   
    84    37    43 1   
    85    37    86 1   
    86    38    43 1   
    87    38    87 1   
    88    41    88 1   
    89    42    89 1   
    90    44    92 2   
    91    44    93 2   
    92    45    90 1   
    93    46    91 1   
    94    59    91 1   
    95    60    91 1   
@<TRIPOS>SUBSTRUCTURE
     1 YOA         1 TEMP              0 ****  ****    0 ROOT
