@<TRIPOS>MOLECULE
YOA
   93    95     1     0     0
SMALL
No Charge or Current Charge


@<TRIPOS>ATOM
      1 C11         -1.7970    62.1680    -9.6470 c5         1 YOA       0.293300
      2 C13         -3.9630    61.3810    -9.2050 c5         1 YOA       0.126300
      3 C14         -5.1530    60.5760    -9.8090 c3         1 YOA       0.223800
      4 C17         -4.9000    56.5200    -9.2190 c3         1 YOA      -0.297400
      5 C18         -4.1030    55.2520    -9.6270 c3         1 YOA       0.052300
      6 C19         -2.7560    55.0290    -8.8620 c3         1 YOA       0.188500
      7 C02          1.5250    62.1580   -13.2060 ca         1 YOA       0.452900
      8 C04          2.0030    60.7090   -11.5000 ca         1 YOA       0.182900
      9 C06          0.0750    61.9290   -11.3250 ca         1 YOA       0.113500
     10 C07          0.3450    62.5290   -12.5280 ca         1 YOA      -0.094600
     11 C09         -1.5200    63.3850   -11.8770 cc         1 YOA       0.423700
     12 C21         -1.9490    53.8350    -9.4490 c3         1 YOA       0.076600
     13 C25         -7.1280    52.6220   -11.1030 c3         1 YOA       0.114000
     14 C27         -6.4530    50.4070   -10.1020 c          1 YOA       0.615100
     15 C28         -5.5360    49.1950   -10.3040 c3         1 YOA      -0.200400
     16 C29         -6.3060    47.9220   -10.7220 c3         1 YOA       0.096000
     17 C31         -8.7380    48.0210   -10.0970 c          1 YOA       0.566100
     18 C32         -9.6290    48.2450    -8.8300 c3         1 YOA       0.096300
     19 C34        -10.3730    46.9580    -8.3170 c3         1 YOA      -0.043000
     20 C35         -9.3630    45.8820    -7.8160 c3         1 YOA      -0.083600
     21 C36        -11.2190    46.3510    -9.4760 c3         1 YOA      -0.083600
     22 C37        -11.3220    47.3790    -7.1470 c3         1 YOA       0.191600
     23 C53         -4.0740    62.9220    -9.3790 c5         1 YOA       0.152300
     24 C55         -2.6270    63.3350    -8.9760 c5         1 YOA       0.097300
     25 N01          1.8820    62.6910   -14.4060 nv         1 YOA      -1.064900
     26 N03          2.3610    61.2400   -12.6950 nb         1 YOA      -0.302000
     27 N05          0.8950    61.0080   -10.7800 nb         1 YOA      -0.239000
     28 N08         -0.6430    63.4470   -12.8970 nd         1 YOA      -0.556100
     29 N10         -1.1060    62.4680   -10.9020 na         1 YOA      -0.313300
     30 N15         -5.2920    59.1670    -9.3480 n7         1 YOA      -0.912300
     31 N20         -2.9950    54.8490    -7.4080 n8         1 YOA      -0.989200
     32 N26         -6.4080    51.3410   -11.1100 ns         1 YOA      -0.488900
     33 N30         -7.4310    47.6690    -9.8240 ns         1 YOA      -0.486900
     34 O12         -2.7310    61.0910    -9.9000 os         1 YOA      -0.447000
     35 O33         -8.8700    48.8760    -7.7610 oh         1 YOA      -0.669000
     36 O38        -12.0810    46.2380    -6.6940 os         1 YOA      -0.383100
     37 O40        -14.1430    47.5730    -6.0760 oh         1 YOA      -0.540100
     38 O48        -12.2750    47.0530    -4.3020 oh         1 YOA      -0.540100
     39 O49         -9.1200    48.2680   -11.2340 o          1 YOA      -0.601100
     40 O50         -7.1570    50.5410    -9.1080 o          1 YOA      -0.632100
     41 O54         -5.0230    63.5350    -8.5040 oh         1 YOA      -0.688000
     42 O56         -2.5080    63.3640    -7.5340 oh         1 YOA      -0.692000
     43 P39        -13.2140    46.3300    -5.4730 p3         1 YOA       0.255300
     44 S16         -4.0850    58.0610    -9.6470 s6         1 YOA       1.190100
     45 S22         -0.2300    53.6280    -8.7630 sh         1 YOA      -0.422800
     46 S23         -5.2250    53.7930    -9.3830 ss         1 YOA      -0.406000
     47 H1          -1.0200    61.8250    -8.9510 h2         1 YOA       0.109700
     48 H2          -3.8500    61.1190    -8.1440 h1         1 YOA       0.089700
     49 H3          -5.0720    60.6150   -10.9050 h1         1 YOA       0.076200
     50 H4          -6.0730    61.1200    -9.5530 h1         1 YOA       0.076200
     51 H5          -5.8530    56.5490    -9.7570 h1         1 YOA       0.101700
     52 H6          -5.0990    56.5460    -8.1440 h1         1 YOA       0.101700
     53 H7          -3.8700    55.3170   -10.6990 h1         1 YOA       0.082700
     54 H8          -2.1230    55.9180    -8.9940 h1         1 YOA       0.075700
     55 H9           2.6740    59.9650   -11.0750 h5         1 YOA       0.045100
     56 H10         -2.4380    63.9560   -11.7930 h5         1 YOA       0.094800
     57 H11         -1.8560    53.9710   -10.5350 h1         1 YOA       0.070200
     58 H12         -2.4970    52.9000    -9.2800 h1         1 YOA       0.070200
     59 H13         -6.7590    54.7570   -11.0230 h1         1 YOA       0.062200
     60 H14         -5.4690    53.8260   -11.8160 h1         1 YOA       0.062200
     61 H15         -7.8510    52.6450   -10.2770 h1         1 YOA       0.070700
     62 H16         -7.6930    52.7090   -12.0400 h1         1 YOA       0.070700
     63 H17         -4.7910    49.4080   -11.0800 hc         1 YOA       0.070700
     64 H18         -5.0290    48.9890    -9.3540 hc         1 YOA       0.070700
     65 H19         -6.6710    48.0350   -11.7520 h1         1 YOA       0.066200
     66 H20         -5.6300    47.0560   -10.7010 h1         1 YOA       0.066200
     67 H21        -10.4040    48.9490    -9.1620 h1         1 YOA       0.061700
     68 H22         -9.8860    44.9910    -7.4470 hc         1 YOA       0.040533
     69 H23         -8.6980    45.5520    -8.6230 hc         1 YOA       0.040533
     70 H24         -8.7450    46.2670    -6.9970 hc         1 YOA       0.040533
     71 H25        -11.9390    47.0840    -9.8600 hc         1 YOA       0.040533
     72 H26        -10.5840    46.0290   -10.3100 hc         1 YOA       0.040533
     73 H27        -11.7820    45.4710    -9.1430 hc         1 YOA       0.040533
     74 H28        -10.7280    47.7910    -6.3210 h1         1 YOA       0.050200
     75 H29        -11.9960    48.1710    -7.4990 h1         1 YOA       0.050200
     76 H30         -4.2880    63.1800   -10.4260 h1         1 YOA       0.049700
     77 H31         -2.3620    64.3140    -9.4000 h1         1 YOA       0.075700
     78 H32          2.5570    62.1820   -14.9710 hn         1 YOA       0.508000
     79 H33          1.1670    63.2110   -14.9090 hn         1 YOA       0.508000
     80 H34         -5.3180    59.1490    -8.3290 hn         1 YOA       0.495000
     81 H35         -3.3370    55.7320    -7.0160 hn         1 YOA       0.415000
     82 H36         -3.8010    54.2210    -7.3110 hn         1 YOA       0.415000
     83 H38         -5.7920    51.1400   -11.8890 hn         1 YOA       0.315500
     84 H39         -7.2240    47.4950    -8.8470 hn         1 YOA       0.322500
     85 H40         -8.2850    49.5650    -8.1850 ho         1 YOA       0.477000
     86 H41        -15.0740    47.2660    -6.0770 ho         1 YOA       0.468000
     87 H42        -12.3500    46.5070    -3.4910 ho         1 YOA       0.468000
     88 H43         -4.4930    63.7090    -7.6850 ho         1 YOA       0.518000
     89 H44         -1.6200    63.7340    -7.3090 ho         1 YOA       0.519000
     90 H45          0.1950    54.8860    -9.0390 hs         1 YOA       0.219800
     91 C24         -6.1750    53.8300   -10.9760 c3         1 YOA       0.038600
     92 O51         -3.0170    58.3390    -8.6890 o          1 YOA      -0.541000
     93 O52         -3.8440    58.0780   -11.0910 o          1 YOA      -0.541000
@<TRIPOS>BOND
     1     1    24 1   
     2     1    29 1   
     3     1    34 1   
     4     1    47 1   
     5     2     3 1   
     6     2    23 1   
     7     2    34 1   
     8     2    48 1   
     9     3    30 1   
    10     3    49 1   
    11     3    50 1   
    12     4     5 1   
    13     4    44 1   
    14     4    51 1   
    15     4    52 1   
    16     5     6 1   
    17     5    46 1   
    18     5    53 1   
    19     6    12 1   
    20     6    31 1   
    21     6    54 1   
    22     7    10 ar  
    23     7    25 1   
    24     7    26 ar  
    25     8    26 ar  
    26     8    27 ar  
    27     8    55 1   
    28     9    10 ar  
    29     9    27 ar  
    30     9    29 1   
    31    10    28 1   
    32    11    28 2   
    33    11    29 1   
    34    11    56 1   
    35    12    45 1   
    36    12    57 1   
    37    12    58 1   
    38    13    32 1   
    39    13    61 1   
    40    13    62 1   
    41    13    91 1   
    42    14    15 1   
    43    14    32 1   
    44    14    40 2   
    45    15    16 1   
    46    15    63 1   
    47    15    64 1   
    48    16    33 1   
    49    16    65 1   
    50    16    66 1   
    51    17    18 1   
    52    17    33 1   
    53    17    39 2   
    54    18    19 1   
    55    18    35 1   
    56    18    67 1   
    57    19    20 1   
    58    19    21 1   
    59    19    22 1   
    60    20    68 1   
    61    20    69 1   
    62    20    70 1   
    63    21    71 1   
    64    21    72 1   
    65    21    73 1   
    66    22    36 1   
    67    22    74 1   
    68    22    75 1   
    69    23    24 1   
    70    23    41 1   
    71    23    76 1   
    72    24    42 1   
    73    24    77 1   
    74    25    78 1   
    75    25    79 1   
    76    30    44 1   
    77    30    80 1   
    78    31    81 1   
    79    31    82 1   
    80    32    83 1   
    81    33    84 1   
    82    35    85 1   
    83    36    43 1   
    84    37    43 1   
    85    37    86 1   
    86    38    43 1   
    87    38    87 1   
    88    41    88 1   
    89    42    89 1   
    90    44    92 2   
    91    44    93 2   
    92    45    90 1   
    93    46    91 1   
    94    59    91 1   
    95    60    91 1   
@<TRIPOS>SUBSTRUCTURE
     1 YOA         1 TEMP              0 ****  ****    0 ROOT
