@<TRIPOS>MOLECULE
YOB
   47    50     1     0     0
SMALL
abcg2


@<TRIPOS>ATOM
      1 C10         13.2300    10.2930    24.9360 ca         1 YOB      -0.155500
      2 C11         14.0900    10.1260    26.0090 ca         1 YOB       0.334900
      3 C13         12.3830     9.6560    27.4220 ca         1 YOB       0.334900
      4 C16         13.1150    10.1310    20.0090 cc         1 YOB       0.808900
      5 C19         16.3550    11.2740    19.7950 c          1 YOB       0.563000
      6 C21         16.6480    12.6770    19.6440 cc         1 YOB      -0.393200
      7 C22         15.6850    13.6320    19.5890 cd         1 YOB       0.189800
      8 C24         14.0210    11.9850    19.8110 cd         1 YOB       0.688400
      9 C26         15.9770    15.0860    19.4040 c3         1 YOB      -0.057200
     10 C27         15.5190    15.6240    18.0430 c3         1 YOB      -0.073400
     11 C28         16.1940    14.9370    16.8660 c3         1 YOB      -0.095100
     12 C1          10.3690     9.9970    21.6590 ca         1 YOB      -0.095300
     13 C14         11.4400     9.7970    26.4170 ca         1 YOB      -0.155500
     14 C2          10.7560     9.5610    20.2620 c3         1 YOB       0.284100
     15 C3          11.2470     9.8860    22.7280 ca         1 YOB      -0.081000
     16 C4          10.8980    10.2730    24.0210 cp         1 YOB      -0.038000
     17 C5           9.6250    10.7940    24.2410 ca         1 YOB      -0.090000
     18 C6           8.7260    10.9110    23.1950 ca         1 YOB      -0.103000
     19 C7           9.1010    10.5080    21.9240 ca         1 YOB       0.127000
     20 C9          11.8600    10.1240    25.1290 cp         1 YOB       0.004000
     21 N12         13.6880     9.8130    27.2350 nb         1 YOB      -0.661000
     22 N15         12.1350     9.2040    20.0920 nu         1 YOB      -0.926100
     23 N17         14.3940     9.8180    19.9980 nd         1 YOB      -0.569800
     24 N18         14.9810    11.0360    19.8660 n          1 YOB      -0.061500
     25 N23         14.3710    13.2790    19.6780 na         1 YOB      -0.763900
     26 N25         12.8290    11.4580    19.9020 nc         1 YOB      -0.774000
     27 O20         17.1570    10.3640    19.8530 o          1 YOB      -0.472000
     28 CL8          7.9430    10.6380    20.6390 cl         1 YOB      -0.205000
     29 H34         13.6330    10.5680    23.9700 ha         1 YOB       0.125500
     30 H35         15.1570    10.2570    25.8670 h4         1 YOB       0.020100
     31 H36         12.0640     9.3960    28.4250 h4         1 YOB       0.020100
     32 H39         17.6860    12.9660    19.5680 ha         1 YOB       0.224000
     33 H42         15.4920    15.6510    20.2040 hc         1 YOB       0.068200
     34 H41         17.0520    15.2340    19.5140 hc         1 YOB       0.068200
     35 H44         14.4330    15.5450    17.9530 hc         1 YOB       0.045700
     36 H43         15.7430    16.6930    18.0240 hc         1 YOB       0.045700
     37 H47         15.8960    15.4000    15.9250 hc         1 YOB       0.041367
     38 H46         17.2800    15.0060    16.9420 hc         1 YOB       0.041367
     39 H45         15.9330    13.8800    16.8070 hc         1 YOB       0.041367
     40 H37         10.3950     9.6300    26.6420 ha         1 YOB       0.125500
     41 H30         10.1540     8.6960    19.9760 h1         1 YOB       0.075200
     42 H29         10.5010    10.3510    19.5540 h1         1 YOB       0.075200
     43 H31         12.2260     9.4590    22.5520 ha         1 YOB       0.124000
     44 H32          9.3280    11.1280    25.2270 ha         1 YOB       0.121000
     45 H33          7.7390    11.3180    23.3690 ha         1 YOB       0.131000
     46 H38         12.4150     8.2600    20.3000 hn         1 YOB       0.505000
     47 H40         13.6390    13.9760    19.6610 hn         1 YOB       0.536000
@<TRIPOS>BOND
     1     1     2 ar  
     2     1    20 ar  
     3     1    29 1   
     4     2    21 ar  
     5     2    30 1   
     6     3    13 ar  
     7     3    21 ar  
     8     3    31 1   
     9     4    22 1   
    10     4    23 2   
    11     4    26 1   
    12     5     6 1   
    13     5    24 1   
    14     5    27 2   
    15     6     7 2   
    16     6    32 1   
    17     7     9 1   
    18     7    25 1   
    19     8    24 1   
    20     8    25 1   
    21     8    26 2   
    22     9    10 1   
    23     9    33 1   
    24     9    34 1   
    25    10    11 1   
    26    10    35 1   
    27    10    36 1   
    28    11    37 1   
    29    11    38 1   
    30    11    39 1   
    31    12    14 1   
    32    12    15 ar  
    33    12    19 ar  
    34    13    20 ar  
    35    13    40 1   
    36    14    22 1   
    37    14    41 1   
    38    14    42 1   
    39    15    16 ar  
    40    15    43 1   
    41    16    17 ar  
    42    16    20 1   
    43    17    18 ar  
    44    17    44 1   
    45    18    19 ar  
    46    18    45 1   
    47    19    28 1   
    48    22    46 1   
    49    23    24 1   
    50    25    47 1   
@<TRIPOS>SUBSTRUCTURE
     1 YOB         1 TEMP              0 ****  ****    0 ROOT
