@<TRIPOS>MOLECULE
YOB
   47    50     1     0     0
SMALL
No Charge or Current Charge


@<TRIPOS>ATOM
      1 C10         12.8330     8.7460    25.6420 ca         1 YOB      -0.155500
      2 C11         13.2710     8.1550    26.8390 ca         1 YOB       0.334900
      3 C13         11.4130     8.9210    27.9840 ca         1 YOB       0.334900
      4 C16         13.5160    10.3060    20.1100 cc         1 YOB       0.808900
      5 C19         16.5390    11.9540    19.8200 c          1 YOB       0.563000
      6 C21         16.4810    13.3600    19.3910 cc         1 YOB      -0.393200
      7 C22         15.3380    14.0860    19.0910 cd         1 YOB       0.189800
      8 C24         14.1890    12.1080    19.6100 cd         1 YOB       0.688400
      9 C26         15.3350    15.5270    18.6490 c3         1 YOB      -0.057200
     10 C27         15.0630    15.7070    17.1370 c3         1 YOB      -0.073400
     11 C28         16.1330    15.0630    16.2320 c3         1 YOB      -0.095100
     12 C1          10.8910    10.1400    21.8940 ca         1 YOB      -0.095300
     13 C14         10.9050     9.5430    26.8310 ca         1 YOB      -0.155500
     14 C2          11.1920     9.4600    20.5560 c3         1 YOB       0.284100
     15 C3          11.3530     9.5400    23.0860 ca         1 YOB      -0.081000
     16 C4          11.1110    10.1170    24.3580 cp         1 YOB      -0.038000
     17 C5          10.3770    11.3260    24.4050 ca         1 YOB      -0.090000
     18 C6           9.9050    11.9300    23.2290 ca         1 YOB      -0.103000
     19 C7          10.1560    11.3460    21.9780 ca         1 YOB       0.127000
     20 C9          11.6160     9.4680    25.6100 cp         1 YOB       0.004000
     21 N12         12.5780     8.2350    27.9970 nb         1 YOB      -0.661000
     22 N15         12.6440     9.3200    20.3500 nu         1 YOB      -0.926100
     23 N17         14.8100    10.1140    20.2540 nd         1 YOB      -0.569800
     24 N18         15.2810    11.3770    19.9060 n          1 YOB      -0.061500
     25 N23         14.1200    13.4050    19.2150 na         1 YOB      -0.763900
     26 N25         13.0470    11.5080    19.7100 nc         1 YOB      -0.774000
     27 O20         17.5790    11.3610    20.0710 o          1 YOB      -0.472000
     28 Cl8          9.5170    12.1580    20.5470 cl         1 YOB      -0.205000
     29 H34         13.4490     8.6530    24.7540 ha         1 YOB       0.125500
     30 H35         14.2090     7.6020    26.8720 h4         1 YOB       0.020100
     31 H36         10.8680     8.9700    28.9260 h4         1 YOB       0.020100
     32 H39         17.4560    13.8280    19.3150 ha         1 YOB       0.224000
     33 H42         14.5760    16.0810    19.2140 hc         1 YOB       0.068200
     34 H41         16.2940    15.9970    18.8980 hc         1 YOB       0.068200
     35 H44         14.0810    15.2860    16.8890 hc         1 YOB       0.045700
     36 H43         15.0110    16.7800    16.9130 hc         1 YOB       0.045700
     37 H47         15.9090    15.2600    15.1770 hc         1 YOB       0.041367
     38 H46         17.1270    15.4720    16.4530 hc         1 YOB       0.041367
     39 H45         16.1660    13.9760    16.3750 hc         1 YOB       0.041367
     40 H37          9.9550    10.0660    26.8920 ha         1 YOB       0.125500
     41 H30         10.7200     8.4670    20.5580 h1         1 YOB       0.075200
     42 H29         10.7480    10.0100    19.7170 h1         1 YOB       0.075200
     43 H31         11.9000     8.6020    23.0230 ha         1 YOB       0.124000
     44 H32         10.1800    11.8080    25.3600 ha         1 YOB       0.121000
     45 H33          9.3420    12.8580    23.2880 ha         1 YOB       0.131000
     46 H38         13.1060     8.4850    20.6960 hn         1 YOB       0.505000
     47 H40         13.2140    13.8160    19.0290 hn         1 YOB       0.536000
@<TRIPOS>BOND
     1     1     2 ar  
     2     1    20 ar  
     3     1    29 1   
     4     2    21 ar  
     5     2    30 1   
     6     3    13 ar  
     7     3    21 ar  
     8     3    31 1   
     9     4    22 1   
    10     4    23 2   
    11     4    26 1   
    12     5     6 1   
    13     5    24 1   
    14     5    27 2   
    15     6     7 2   
    16     6    32 1   
    17     7     9 1   
    18     7    25 1   
    19     8    24 1   
    20     8    25 1   
    21     8    26 2   
    22     9    10 1   
    23     9    33 1   
    24     9    34 1   
    25    10    11 1   
    26    10    35 1   
    27    10    36 1   
    28    11    37 1   
    29    11    38 1   
    30    11    39 1   
    31    12    14 1   
    32    12    15 ar  
    33    12    19 ar  
    34    13    20 ar  
    35    13    40 1   
    36    14    22 1   
    37    14    41 1   
    38    14    42 1   
    39    15    16 ar  
    40    15    43 1   
    41    16    17 ar  
    42    16    20 1   
    43    17    18 ar  
    44    17    44 1   
    45    18    19 ar  
    46    18    45 1   
    47    19    28 1   
    48    22    46 1   
    49    23    24 1   
    50    25    47 1   
@<TRIPOS>SUBSTRUCTURE
     1 YOB         1 TEMP              0 ****  ****    0 ROOT
