@<TRIPOS>MOLECULE
YOD
   65    69     1     0     0
SMALL
No Charge or Current Charge


@<TRIPOS>ATOM
      1 C21        -42.9490    18.2610    -7.8180 c6         1 YOD       0.107700
      2 C22        -43.0180    19.0510    -6.4840 c6         1 YOD      -0.089400
      3 C23        -42.5320    20.5120    -6.6660 c6         1 YOD      -0.072900
      4 C24        -41.0950    20.5550    -7.2450 c6         1 YOD       0.161500
      5 C26        -41.0090    19.7560    -8.5710 c6         1 YOD      -0.072900
      6 C27        -41.5030    18.2990    -8.3770 c6         1 YOD      -0.089400
      7 C11        -46.6320    12.1060    -9.5400 ca         1 YOD      -0.065300
      8 C13        -46.4960    11.5670   -11.9370 ca         1 YOD      -0.110000
      9 C14        -47.7850    11.0160   -11.9080 ca         1 YOD      -0.111000
     10 C29        -45.7610    14.7450    -6.0090 c6         1 YOD      -0.062400
     11 C15        -48.5100    11.0040   -10.7070 ca         1 YOD      -0.110000
     12 C12        -45.9300    12.1040   -10.7690 ca         1 YOD      -0.107000
     13 C03        -46.9780    13.1510    -4.4540 c3         1 YOD       0.069600
     14 C04        -46.0720    13.2390    -5.7260 c6         1 YOD      -0.040000
     15 C05        -44.6870    12.5070    -5.4860 c6         1 YOD      -0.068400
     16 C06        -43.8320    12.6260    -6.7710 c6         1 YOD      -0.058700
     17 C07        -43.5600    14.1240    -7.0700 c6         1 YOD      -0.062400
     18 C08        -46.8340    12.6560    -6.9960 c6         1 YOD      -0.063400
     19 C09        -45.9280    12.7310    -8.2740 c6         1 YOD       0.003300
     20 C16        -47.9480    11.5400    -9.5360 ca         1 YOD      -0.107000
     21 C17        -45.6040    14.2400    -8.5320 c6         1 YOD      -0.048400
     22 C18        -44.9050    14.9070    -7.3020 c6         1 YOD      -0.124000
     23 N20        -43.3690    16.8710    -7.6130 ns         1 YOD      -0.504900
     24 N25        -40.6590    21.9470    -7.4500 n8         1 YOD      -0.997200
     25 O28        -45.6110    17.1850    -7.7380 o          1 YOD      -0.598100
     26 S02        -47.4550    11.4290    -3.9450 ss         1 YOD      -0.437000
     27 H1         -43.6260    18.7290    -8.5510 h1         1 YOD       0.084700
     28 H2         -44.0480    19.0530    -6.1030 hc         1 YOD       0.043950
     29 H3         -42.4050    18.5510    -5.7220 hc         1 YOD       0.043950
     30 H4         -42.5640    21.0320    -5.6980 hc         1 YOD       0.050950
     31 H5         -43.2220    21.0470    -7.3330 hc         1 YOD       0.050950
     32 H6         -40.4040    20.1060    -6.5150 h1         1 YOD       0.010700
     33 H7         -39.9740    19.7460    -8.9390 hc         1 YOD       0.050950
     34 H8         -41.6140    20.2470    -9.3460 hc         1 YOD       0.050950
     35 H9         -41.4610    17.7670    -9.3370 hc         1 YOD       0.043950
     36 H10        -40.8230    17.7690    -7.6950 hc         1 YOD       0.043950
     37 H11        -45.9320    11.5790   -12.8670 ha         1 YOD       0.111000
     38 H12        -48.2220    10.6000   -12.8130 ha         1 YOD       0.112000
     39 H13        -45.2380    15.1950    -5.1530 hc         1 YOD       0.042700
     40 H14        -46.7040    15.2990    -6.1160 hc         1 YOD       0.042700
     41 H15        -49.5110    10.5780   -10.6830 ha         1 YOD       0.111000
     42 H18        -44.9300    12.5250   -10.8270 ha         1 YOD       0.111500
     43 H19        -46.4360    10.1580    -2.1160 h1         1 YOD       0.059033
     44 H20        -45.2450    11.2440    -2.8870 h1         1 YOD       0.059033
     45 H21        -46.4600    11.9080    -1.7560 h1         1 YOD       0.059033
     46 H22        -46.4700    13.6420    -3.6130 h1         1 YOD       0.066700
     47 H23        -47.9020    13.7110    -4.6480 h1         1 YOD       0.066700
     48 H24        -44.8460    11.4460    -5.2550 hc         1 YOD       0.044700
     49 H25        -44.1570    12.9430    -4.6270 hc         1 YOD       0.044700
     50 H26        -42.8770    12.1050    -6.6180 hc         1 YOD       0.052700
     51 H27        -42.9100    14.2020    -7.9540 hc         1 YOD       0.043200
     52 H28        -42.9990    14.5610    -6.2310 hc         1 YOD       0.043200
     53 H29        -47.7720    13.2060    -7.1560 hc         1 YOD       0.054200
     54 H30        -47.1070    11.6100    -6.8060 hc         1 YOD       0.054200
     55 H31        -48.5430    11.5130    -8.6290 ha         1 YOD       0.111500
     56 H32        -44.9670    14.3560    -9.4190 hc         1 YOD       0.061200
     57 H33        -46.5370    14.7730    -8.7630 hc         1 YOD       0.061200
     58 H34        -42.6500    16.1750    -7.4670 hn         1 YOD       0.304500
     59 H35        -40.6360    22.4200    -6.5390 hn         1 YOD       0.393500
     60 H36        -39.6750    21.9430    -7.7400 hn         1 YOD       0.393500
     61 C19        -44.6710    16.4200    -7.5760 c          1 YOD       0.605100
     62 C10        -44.5850    11.9820    -7.9710 c6         1 YOD      -0.063400
     63 H16        -44.7860    10.9220    -7.7620 hc         1 YOD       0.047700
     64 C01        -46.2820    11.1590    -2.5380 c3         1 YOD       0.040900
     65 H17        -43.9260    11.9960    -8.8480 hc         1 YOD       0.047700
@<TRIPOS>BOND
     1     1     2 1   
     2     1     6 1   
     3     1    23 1   
     4     1    27 1   
     5     2     3 1   
     6     2    28 1   
     7     2    29 1   
     8     3     4 1   
     9     3    30 1   
    10     3    31 1   
    11     4     5 1   
    12     4    24 1   
    13     4    32 1   
    14     5     6 1   
    15     5    33 1   
    16     5    34 1   
    17     6    35 1   
    18     6    36 1   
    19     7    12 ar  
    20     7    19 1   
    21     7    20 ar  
    22     8     9 ar  
    23     8    12 ar  
    24     8    37 1   
    25     9    11 ar  
    26     9    38 1   
    27    10    14 1   
    28    10    22 1   
    29    10    39 1   
    30    10    40 1   
    31    11    20 ar  
    32    11    41 1   
    33    12    42 1   
    34    13    14 1   
    35    13    26 1   
    36    13    46 1   
    37    13    47 1   
    38    14    15 1   
    39    14    18 1   
    40    15    16 1   
    41    15    48 1   
    42    15    49 1   
    43    16    17 1   
    44    16    50 1   
    45    16    62 1   
    46    17    22 1   
    47    17    51 1   
    48    17    52 1   
    49    18    19 1   
    50    18    53 1   
    51    18    54 1   
    52    19    21 1   
    53    19    62 1   
    54    20    55 1   
    55    21    22 1   
    56    21    56 1   
    57    21    57 1   
    58    22    61 1   
    59    23    58 1   
    60    23    61 1   
    61    24    59 1   
    62    24    60 1   
    63    25    61 2   
    64    26    64 1   
    65    43    64 1   
    66    44    64 1   
    67    45    64 1   
    68    62    63 1   
    69    62    65 1   
@<TRIPOS>SUBSTRUCTURE
     1 YOD         1 TEMP              0 ****  ****    0 ROOT
