@<TRIPOS>MOLECULE
YOD
   65    69     1     0     0
SMALL
abcg2


@<TRIPOS>ATOM
      1 C21        -42.7240    18.0660    -7.7360 c6         1 YOD       0.107700
      2 C22        -43.5910    18.9890    -6.8800 c6         1 YOD      -0.089400
      3 C23        -43.1250    20.4370    -6.9790 c6         1 YOD      -0.072900
      4 C24        -41.6590    20.5790    -6.5870 c6         1 YOD       0.161500
      5 C26        -40.8040    19.6710    -7.4630 c6         1 YOD      -0.072900
      6 C27        -41.2500    18.2160    -7.3700 c6         1 YOD      -0.089400
      7 C11        -46.9240    12.1200    -9.4430 ca         1 YOD      -0.065300
      8 C13        -47.3350    11.3910   -11.7240 ca         1 YOD      -0.110000
      9 C14        -48.6480    11.0660   -11.4070 ca         1 YOD      -0.111000
     10 C29        -45.1890    14.7870    -6.4820 c6         1 YOD      -0.062400
     11 C15        -49.0970    11.2690   -10.1120 ca         1 YOD      -0.110000
     12 C12        -46.4890    11.9100   -10.7560 ca         1 YOD      -0.107000
     13 C03        -46.3250    13.5850    -4.6500 c3         1 YOD       0.069600
     14 C04        -45.6350    13.4000    -6.0020 c6         1 YOD      -0.040000
     15 C05        -44.4060    12.4950    -5.9070 c6         1 YOD      -0.068400
     16 C06        -43.7430    12.3770    -7.2770 c6         1 YOD      -0.058700
     17 C07        -43.2940    13.7570    -7.7550 c6         1 YOD      -0.062400
     18 C08        -46.6120    12.8200    -7.0260 c6         1 YOD      -0.063400
     19 C09        -45.9650    12.6910    -8.4090 c6         1 YOD       0.003300
     20 C16        -48.2440    11.7900    -9.1440 ca         1 YOD      -0.107000
     21 C17        -45.5070    14.0910    -8.8570 c6         1 YOD      -0.048400
     22 C18        -44.5100    14.6920    -7.8600 c6         1 YOD      -0.124000
     23 N20        -43.1280    16.6800    -7.5940 ns         1 YOD      -0.504900
     24 N25        -41.2350    21.9630    -6.7420 n8         1 YOD      -0.997200
     25 O28        -44.6480    16.6630    -9.2550 o          1 YOD      -0.598100
     26 S02        -46.9370    12.0780    -3.8360 ss         1 YOD      -0.437000
     27 H1         -42.8470    18.3430    -8.7860 h1         1 YOD       0.084700
     28 H2         -44.6350    18.9030    -7.1870 hc         1 YOD       0.043950
     29 H3         -43.5380    18.6530    -5.8380 hc         1 YOD       0.043950
     30 H4         -43.7480    21.0730    -6.3430 hc         1 YOD       0.050950
     31 H5         -43.2500    20.8000    -8.0050 hc         1 YOD       0.050950
     32 H6         -41.5590    20.2240    -5.5460 h1         1 YOD       0.010700
     33 H7         -39.7520    19.7540    -7.1750 hc         1 YOD       0.050950
     34 H8         -40.8760    20.0160    -8.5000 hc         1 YOD       0.050950
     35 H9         -40.6400    17.5900    -8.0240 hc         1 YOD       0.043950
     36 H10        -41.0930    17.8530    -6.3470 hc         1 YOD       0.043950
     37 H11        -46.9660    11.2400   -12.7310 ha         1 YOD       0.111000
     38 H12        -49.3100    10.6600   -12.1610 ha         1 YOD       0.112000
     39 H13        -44.5100    15.2230    -5.7420 hc         1 YOD       0.042700
     40 H14        -46.0570    15.4520    -6.5460 hc         1 YOD       0.042700
     41 H15        -50.1170    11.0220    -9.8460 ha         1 YOD       0.111000
     42 H18        -45.4710    12.1540   -11.0350 ha         1 YOD       0.111500
     43 H19        -45.8930    10.8450    -2.1010 h1         1 YOD       0.059033
     44 H20        -44.6780    11.3480    -3.2810 h1         1 YOD       0.059033
     45 H21        -45.3100    12.5140    -2.0980 h1         1 YOD       0.059033
     46 H22        -45.6580    14.0920    -3.9470 h1         1 YOD       0.066700
     47 H23        -47.1980    14.2310    -4.7790 h1         1 YOD       0.066700
     48 H24        -44.7000    11.5030    -5.5540 hc         1 YOD       0.044700
     49 H25        -43.6990    12.9030    -5.1760 hc         1 YOD       0.044700
     50 H26        -42.8680    11.7250    -7.2050 hc         1 YOD       0.052700
     51 H27        -42.8020    13.6790    -8.7290 hc         1 YOD       0.043200
     52 H28        -42.5510    14.1500    -7.0550 hc         1 YOD       0.043200
     53 H29        -47.4930    13.4700    -7.0780 hc         1 YOD       0.054200
     54 H30        -46.9570    11.8410    -6.6770 hc         1 YOD       0.054200
     55 H31        -48.6320    11.9330    -8.1450 ha         1 YOD       0.111500
     56 H32        -45.0440    14.0340    -9.8450 hc         1 YOD       0.061200
     57 H33        -46.3810    14.7400    -8.9510 hc         1 YOD       0.061200
     58 H34        -42.7820    16.1980    -6.7800 hn         1 YOD       0.304500
     59 H35        -41.7760    22.5520    -6.1200 hn         1 YOD       0.393500
     60 H36        -40.2740    22.0570    -6.4370 hn         1 YOD       0.393500
     61 C19        -44.1080    16.0990    -8.3130 c          1 YOD       0.605100
     62 C10        -44.7310    11.7800    -8.2750 c6         1 YOD      -0.063400
     63 H16        -45.0460    10.7840    -7.9500 hc         1 YOD       0.047700
     64 C01        -45.5630    11.6670    -2.7340 c3         1 YOD       0.040900
     65 H17        -44.2410    11.6580    -9.2450 hc         1 YOD       0.047700
@<TRIPOS>BOND
     1     1     2 1   
     2     1     6 1   
     3     1    23 1   
     4     1    27 1   
     5     2     3 1   
     6     2    28 1   
     7     2    29 1   
     8     3     4 1   
     9     3    30 1   
    10     3    31 1   
    11     4     5 1   
    12     4    24 1   
    13     4    32 1   
    14     5     6 1   
    15     5    33 1   
    16     5    34 1   
    17     6    35 1   
    18     6    36 1   
    19     7    12 ar  
    20     7    19 1   
    21     7    20 ar  
    22     8     9 ar  
    23     8    12 ar  
    24     8    37 1   
    25     9    11 ar  
    26     9    38 1   
    27    10    14 1   
    28    10    22 1   
    29    10    39 1   
    30    10    40 1   
    31    11    20 ar  
    32    11    41 1   
    33    12    42 1   
    34    13    14 1   
    35    13    26 1   
    36    13    46 1   
    37    13    47 1   
    38    14    15 1   
    39    14    18 1   
    40    15    16 1   
    41    15    48 1   
    42    15    49 1   
    43    16    17 1   
    44    16    50 1   
    45    16    62 1   
    46    17    22 1   
    47    17    51 1   
    48    17    52 1   
    49    18    19 1   
    50    18    53 1   
    51    18    54 1   
    52    19    21 1   
    53    19    62 1   
    54    20    55 1   
    55    21    22 1   
    56    21    56 1   
    57    21    57 1   
    58    22    61 1   
    59    23    58 1   
    60    23    61 1   
    61    24    59 1   
    62    24    60 1   
    63    25    61 2   
    64    26    64 1   
    65    43    64 1   
    66    44    64 1   
    67    45    64 1   
    68    62    63 1   
    69    62    65 1   
@<TRIPOS>SUBSTRUCTURE
     1 YOD         1 TEMP              0 ****  ****    0 ROOT
