@<TRIPOS>MOLECULE
YOF
   23    23     1     0     0
SMALL
No Charge or Current Charge


@<TRIPOS>ATOM
      1 N           37.7740    28.6930    16.2680 n8         1 YOF      -0.868800
      2 CA          36.6350    28.4830    17.2410 c3         1 YOF       0.018500
      3 C           36.6240    29.3900    18.5480 c          1 YOF       0.937600
      4 O           37.5590    29.3020    19.3410 o          1 YOF      -0.833800
      5 OXT         35.7350    30.2270    18.6770 o          1 YOF      -0.833800
      6 CB          36.5330    26.9770    17.5980 c3         1 YOF      -0.053100
      7 CG          35.2390    26.6330    18.3270 ca         1 YOF      -0.034300
      8 CD1         34.0250    26.5590    17.6170 ca         1 YOF      -0.132000
      9 CD2         35.2450    26.3850    19.7150 ca         1 YOF      -0.080000
     10 CE1         32.8320    26.2420    18.2880 ca         1 YOF       0.093900
     11 CE2         34.0500    26.0680    20.3880 ca         1 YOF      -0.197000
     12 CZ          32.8400    25.9950    19.6780 ca         1 YOF       0.073100
     13 OH          31.6870    25.6850    20.3440 oh         1 YOF      -0.494100
     14 F           31.6770    26.1760    17.5850 f          1 YOF      -0.153900
     15 H           37.7290    27.9820    15.5320 hn         1 YOF       0.317300
     16 H2          38.6610    28.5140    16.7500 hn         1 YOF       0.317300
     17 HA          35.7190    28.7400    16.6920 h1         1 YOF       0.049700
     18 HB2         36.5900    26.3830    16.6770 hc         1 YOF       0.027200
     19 HB3         37.4030    26.6850    18.1990 hc         1 YOF       0.027200
     20 HD1         34.0050    26.7450    16.5460 ha         1 YOF       0.141000
     21 HD2         36.1780    26.4410    20.2740 ha         1 YOF       0.147000
     22 HE2         34.0730    25.8800    21.4590 ha         1 YOF       0.119000
     23 HH          31.8990    25.5520    21.2910 ho         1 YOF       0.414000
@<TRIPOS>BOND
     1     1     2 1   
     2     1    15 1   
     3     1    16 1   
     4     2     3 1   
     5     2     6 1   
     6     2    17 1   
     7     3     4 1   
     8     3     5 1   
     9     6     7 1   
    10     6    18 1   
    11     6    19 1   
    12     7     8 ar  
    13     7     9 ar  
    14     8    10 ar  
    15     8    20 1   
    16     9    11 ar  
    17     9    21 1   
    18    10    12 ar  
    19    10    14 1   
    20    11    12 ar  
    21    11    22 1   
    22    12    13 1   
    23    13    23 1   
@<TRIPOS>SUBSTRUCTURE
     1 YOF         1 TEMP              0 ****  ****    0 ROOT
