@<TRIPOS>MOLECULE
YOF
   23    23     1     0     0
SMALL
bcc


@<TRIPOS>ATOM
      1 N           37.8100    28.7510    16.4120 n8         1 YOF      -0.868800
      2 CA          36.6090    28.4580    17.1810 c3         1 YOF       0.018500
      3 C           36.6100    29.3040    18.4750 c          1 YOF       0.937600
      4 O           37.6530    29.2320    19.1620 o          1 YOF      -0.833800
      5 OXT         35.5840    29.9590    18.7350 o          1 YOF      -0.833800
      6 CB          36.4850    26.9620    17.5350 c3         1 YOF      -0.053100
      7 CG          35.2390    26.6200    18.2980 ca         1 YOF      -0.034300
      8 CD1         34.0100    26.5370    17.6420 ca         1 YOF      -0.132000
      9 CD2         35.2550    26.4070    19.6710 ca         1 YOF      -0.080000
     10 CE1         32.8630    26.2500    18.3460 ca         1 YOF       0.093900
     11 CE2         34.0930    26.1130    20.3740 ca         1 YOF      -0.197000
     12 CZ          32.8710    26.0270    19.7200 ca         1 YOF       0.073100
     13 OH          31.7000    25.7410    20.3220 oh         1 YOF      -0.494100
     14 F           31.6870    26.1740    17.6980 f          1 YOF      -0.153900
     15 H           37.9060    28.0830    15.6560 hn         1 YOF       0.317300
     16 H2          38.6100    28.6110    17.0170 hn         1 YOF       0.317300
     17 HA          35.7400    28.7350    16.5760 h1         1 YOF       0.049700
     18 HB2         36.5130    26.3870    16.6050 hc         1 YOF       0.027200
     19 HB3         37.3650    26.6700    18.1130 hc         1 YOF       0.027200
     20 HD1         33.9440    26.6920    16.5710 ha         1 YOF       0.141000
     21 HD2         36.1910    26.4700    20.2120 ha         1 YOF       0.147000
     22 HE2         34.1380    25.9460    21.4450 ha         1 YOF       0.119000
     23 HH          31.8370    25.6070    21.2660 ho         1 YOF       0.414000
@<TRIPOS>BOND
     1     1     2 1   
     2     1    15 1   
     3     1    16 1   
     4     2     3 1   
     5     2     6 1   
     6     2    17 1   
     7     3     4 1   
     8     3     5 1   
     9     6     7 1   
    10     6    18 1   
    11     6    19 1   
    12     7     8 ar  
    13     7     9 ar  
    14     8    10 ar  
    15     8    20 1   
    16     9    11 ar  
    17     9    21 1   
    18    10    12 ar  
    19    10    14 1   
    20    11    12 ar  
    21    11    22 1   
    22    12    13 1   
    23    13    23 1   
@<TRIPOS>SUBSTRUCTURE
     1 YOF         1 TEMP              0 ****  ****    0 ROOT
