@<TRIPOS>MOLECULE
YOG
   65    64     1     0     0
SMALL
abcg2


@<TRIPOS>ATOM
      1 O01         11.5770     6.7320    -5.1960 os         1 YOG      -0.444100
      2 O02         11.9120     4.6650    -5.9870 o          1 YOG      -0.490000
      3 O03         10.7320     8.4670    -3.1480 oh         1 YOG      -0.658000
      4 O04          8.7000     5.7400    -3.2480 oh         1 YOG      -0.658000
      5 C05         15.8500     6.6040    -6.8440 c3         1 YOG      -0.076400
      6 C06         17.1030     6.2930    -6.0290 c3         1 YOG      -0.073400
      7 C07         20.7040     7.2510   -10.6750 c3         1 YOG      -0.073400
      8 C08         20.7520     6.6270    -9.2850 c3         1 YOG      -0.079400
      9 C09         14.9920     5.3820    -7.1560 c3         1 YOG      -0.078400
     10 C10         19.2890     7.3600   -11.2400 c3         1 YOG      -0.073400
     11 C11         18.0850     5.3580    -6.7280 c3         1 YOG      -0.075400
     12 C12         22.1610     6.3040    -8.8090 c3         1 YOG      -0.068400
     13 C13         13.7360     5.6970    -7.9670 c3         1 YOG      -0.065400
     14 C14         18.3480     8.2130   -10.3950 c3         1 YOG      -0.075400
     15 C15         19.4120     5.2280    -5.9770 c3         1 YOG      -0.043200
     16 C16         22.2010     5.7800    -7.3690 c3         1 YOG      -0.042200
     17 C17         16.9790     8.4410   -11.0280 c3         1 YOG      -0.074400
     18 C18         12.7060     6.5570    -7.2460 c3         1 YOG      -0.136400
     19 C19         20.3290     4.2330    -6.6190 c2         1 YOG      -0.217200
     20 C20         21.5000     4.4670    -7.2110 c2         1 YOG      -0.214200
     21 C21         16.1670     7.1650   -11.2110 c3         1 YOG      -0.091100
     22 C22         12.0410     5.8590    -6.0880 c          1 YOG       0.592100
     23 C23         10.8690     6.2530    -4.0430 c3         1 YOG       0.174300
     24 C24         11.2080     7.1700    -2.8880 c3         1 YOG       0.156600
     25 C25          9.3850     6.1950    -4.3890 c3         1 YOG       0.156600
     26 H031        10.8900     9.0080    -2.3690 ho         1 YOG       0.446000
     27 H041         7.7580     5.7480    -3.4390 ho         1 YOG       0.446000
     28 H052        15.2580     7.3440    -6.2980 hc         1 YOG       0.037200
     29 H051        16.1420     7.0870    -7.7840 hc         1 YOG       0.037200
     30 H062        16.8150     5.8590    -5.0660 hc         1 YOG       0.037700
     31 H061        17.6130     7.2330    -5.7980 hc         1 YOG       0.037700
     32 H071        21.3130     6.6530   -11.3600 hc         1 YOG       0.035700
     33 H072        21.1660     8.2440   -10.6450 hc         1 YOG       0.035700
     34 H082        20.2810     7.3000    -8.5610 hc         1 YOG       0.040700
     35 H081        20.1480     5.7140    -9.2810 hc         1 YOG       0.040700
     36 H092        14.7200     4.8780    -6.2230 hc         1 YOG       0.046700
     37 H091        15.5830     4.6580    -7.7220 hc         1 YOG       0.046700
     38 H102        19.3370     7.7790   -12.2510 hc         1 YOG       0.037200
     39 H101        18.8790     6.3510   -11.3490 hc         1 YOG       0.037200
     40 H111        18.2810     5.7260    -7.7410 hc         1 YOG       0.041200
     41 H112        17.6410     4.3660    -6.8460 hc         1 YOG       0.041200
     42 H122        22.6170     5.5690    -9.4820 hc         1 YOG       0.037200
     43 H121        22.7840     7.2020    -8.8720 hc         1 YOG       0.037200
     44 H132        13.2650     4.7660    -8.2880 hc         1 YOG       0.050700
     45 H131        14.0280     6.2180    -8.8830 hc         1 YOG       0.050700
     46 H141        18.2050     7.7500    -9.4120 hc         1 YOG       0.037700
     47 H142        18.8230     9.1820   -10.2060 hc         1 YOG       0.037700
     48 H152        19.2010     4.9120    -4.9490 hc         1 YOG       0.043200
     49 H151        19.8830     6.2110    -5.9060 hc         1 YOG       0.043200
     50 H162        23.2470     5.6590    -7.0690 hc         1 YOG       0.043200
     51 H161        21.7770     6.5350    -6.7030 hc         1 YOG       0.043200
     52 H171        17.1030     8.9380   -11.9960 hc         1 YOG       0.036200
     53 H172        16.4130     9.1360   -10.4020 hc         1 YOG       0.036200
     54 H182        13.1330     7.5040    -6.9120 hc         1 YOG       0.071700
     55 H181        11.9050     6.8280    -7.9430 hc         1 YOG       0.071700
     56 H191        19.9660     3.2080    -6.6150 ha         1 YOG       0.165000
     57 H201        22.0110     3.6180    -7.6590 ha         1 YOG       0.164000
     58 H211        15.1650     7.3830   -11.5820 hc         1 YOG       0.030700
     59 H212        16.6340     6.4800   -11.9200 hc         1 YOG       0.030700
     60 H213        16.0580     6.6330   -10.2630 hc         1 YOG       0.030700
     61 H231        11.2190     5.2510    -3.7790 h1         1 YOG       0.078700
     62 H242        10.7680     6.7400    -1.9820 h1         1 YOG       0.035950
     63 H241        12.2970     7.1540    -2.7460 h1         1 YOG       0.035950
     64 H251         9.2480     5.5160    -5.2400 h1         1 YOG       0.035950
     65 H252         9.0430     7.1860    -4.7080 h1         1 YOG       0.035950
@<TRIPOS>BOND
     1     1    22 1   
     2     1    23 1   
     3     2    22 2   
     4     3    24 1   
     5     3    26 1   
     6     4    25 1   
     7     4    27 1   
     8     5     6 1   
     9     5     9 1   
    10     5    28 1   
    11     5    29 1   
    12     6    11 1   
    13     6    30 1   
    14     6    31 1   
    15     7     8 1   
    16     7    10 1   
    17     7    32 1   
    18     7    33 1   
    19     8    12 1   
    20     8    34 1   
    21     8    35 1   
    22     9    13 1   
    23     9    36 1   
    24     9    37 1   
    25    10    14 1   
    26    10    38 1   
    27    10    39 1   
    28    11    15 1   
    29    11    40 1   
    30    11    41 1   
    31    12    16 1   
    32    12    42 1   
    33    12    43 1   
    34    13    18 1   
    35    13    44 1   
    36    13    45 1   
    37    14    17 1   
    38    14    46 1   
    39    14    47 1   
    40    15    19 1   
    41    15    48 1   
    42    15    49 1   
    43    16    20 1   
    44    16    50 1   
    45    16    51 1   
    46    17    21 1   
    47    17    52 1   
    48    17    53 1   
    49    18    22 1   
    50    18    54 1   
    51    18    55 1   
    52    19    20 2   
    53    19    56 1   
    54    20    57 1   
    55    21    58 1   
    56    21    59 1   
    57    21    60 1   
    58    23    24 1   
    59    23    25 1   
    60    23    61 1   
    61    24    62 1   
    62    24    63 1   
    63    25    64 1   
    64    25    65 1   
@<TRIPOS>SUBSTRUCTURE
     1 YOG         1 TEMP              0 ****  ****    0 ROOT
