@<TRIPOS>MOLECULE
YOG
   65    64     1     0     0
SMALL
No Charge or Current Charge


@<TRIPOS>ATOM
      1 O01         12.2110     6.5080    -5.6720 os         1 YOG      -0.444100
      2 O02         10.8620     4.9320    -6.6630 o          1 YOG      -0.490000
      3 O03         13.0570     8.0860    -3.3980 oh         1 YOG      -0.658000
      4 O04          9.8880     6.2320    -2.7740 oh         1 YOG      -0.658000
      5 C05         15.3540     6.5130    -7.2760 c3         1 YOG      -0.076400
      6 C06         16.5020     6.2890    -6.2640 c3         1 YOG      -0.073400
      7 C07         20.5750     7.5500   -10.1450 c3         1 YOG      -0.073400
      8 C08         20.5220     6.8220    -8.7830 c3         1 YOG      -0.079400
      9 C09         14.5640     5.2340    -7.6470 c3         1 YOG      -0.078400
     10 C10         19.2500     7.4880   -10.9420 c3         1 YOG      -0.073400
     11 C11         17.6240     5.3420    -6.7520 c3         1 YOG      -0.075400
     12 C12         21.8980     6.6890    -8.0940 c3         1 YOG      -0.068400
     13 C13         13.3740     5.4690    -8.6140 c3         1 YOG      -0.065400
     14 C14         18.0410     8.1480   -10.2330 c3         1 YOG      -0.075400
     15 C15         18.8290     5.2890    -5.7870 c3         1 YOG      -0.043200
     16 C16         21.8210     6.0750    -6.6770 c3         1 YOG      -0.042200
     17 C17         16.7360     8.1510   -11.0640 c3         1 YOG      -0.074400
     18 C18         12.2300     6.3660    -8.0710 c3         1 YOG      -0.136400
     19 C19         19.9300     4.3660    -6.2830 c2         1 YOG      -0.217200
     20 C20         21.1820     4.6950    -6.6590 c2         1 YOG      -0.214200
     21 C21         16.1910     6.7470   -11.3990 c3         1 YOG      -0.091100
     22 C22         11.6620     5.8540    -6.7440 c          1 YOG       0.592100
     23 C23         11.8070     6.1370    -4.3310 c3         1 YOG       0.174300
     24 C24         12.8970     6.6530    -3.3440 c3         1 YOG       0.156600
     25 C25         10.3850     6.7030    -4.0400 c3         1 YOG       0.156600
     26 H031        13.7870     8.3170    -2.7830 ho         1 YOG       0.446000
     27 H041         9.0010     6.6370    -2.6430 ho         1 YOG       0.446000
     28 H052        14.6690     7.2500    -6.8410 hc         1 YOG       0.037200
     29 H051        15.7580     6.9680    -8.1880 hc         1 YOG       0.037200
     30 H062        16.0850     5.9020    -5.3260 hc         1 YOG       0.037700
     31 H061        16.9420     7.2660    -6.0290 hc         1 YOG       0.037700
     32 H071        21.3660     7.1010   -10.7590 hc         1 YOG       0.035700
     33 H072        20.8570     8.5990    -9.9870 hc         1 YOG       0.035700
     34 H082        19.8430     7.3600    -8.1110 hc         1 YOG       0.040700
     35 H081        20.1010     5.8210    -8.9360 hc         1 YOG       0.040700
     36 H092        14.2060     4.7470    -6.7320 hc         1 YOG       0.046700
     37 H091        15.2460     4.5220    -8.1270 hc         1 YOG       0.046700
     38 H102        19.4030     7.9770   -11.9130 hc         1 YOG       0.037200
     39 H101        19.0220     6.4360   -11.1540 hc         1 YOG       0.037200
     40 H111        17.9670     5.6690    -7.7400 hc         1 YOG       0.041200
     41 H112        17.2240     4.3290    -6.8730 hc         1 YOG       0.041200
     42 H122        22.5560     6.0720    -8.7180 hc         1 YOG       0.037200
     43 H121        22.3640     7.6800    -8.0230 hc         1 YOG       0.037200
     44 H132        12.9520     4.4920    -8.8820 hc         1 YOG       0.050700
     45 H131        13.7510     5.9040    -9.5480 hc         1 YOG       0.050700
     46 H141        17.8460     7.6380    -9.2830 hc         1 YOG       0.037700
     47 H142        18.2990     9.1850    -9.9840 hc         1 YOG       0.037700
     48 H152        18.4820     4.9450    -4.8050 hc         1 YOG       0.043200
     49 H151        19.1960     6.3090    -5.6350 hc         1 YOG       0.043200
     50 H162        22.8370     6.0100    -6.2680 hc         1 YOG       0.043200
     51 H161        21.2900     6.7730    -6.0210 hc         1 YOG       0.043200
     52 H171        16.8960     8.7090   -11.9950 hc         1 YOG       0.036200
     53 H172        15.9690     8.6970   -10.5000 hc         1 YOG       0.036200
     54 H182        12.6230     7.3800    -7.9310 hc         1 YOG       0.071700
     55 H181        11.4240     6.3830    -8.8140 hc         1 YOG       0.071700
     56 H191        19.6240     3.3190    -6.3260 ha         1 YOG       0.165000
     57 H201        21.8570     3.9060    -6.9960 ha         1 YOG       0.164000
     58 H211        15.2010     6.8250   -11.8650 hc         1 YOG       0.030700
     59 H212        16.8530     6.2250   -12.1000 hc         1 YOG       0.030700
     60 H213        16.0960     6.1370   -10.4930 hc         1 YOG       0.030700
     61 H231        11.7730     5.0430    -4.2350 h1         1 YOG       0.078700
     62 H242        12.6280     6.3410    -2.3260 h1         1 YOG       0.035950
     63 H241        13.8470     6.1600    -3.5910 h1         1 YOG       0.035950
     64 H251         9.6990     6.3960    -4.8400 h1         1 YOG       0.035950
     65 H252        10.4240     7.8010    -4.0490 h1         1 YOG       0.035950
@<TRIPOS>BOND
     1     1    22 1   
     2     1    23 1   
     3     2    22 2   
     4     3    24 1   
     5     3    26 1   
     6     4    25 1   
     7     4    27 1   
     8     5     6 1   
     9     5     9 1   
    10     5    28 1   
    11     5    29 1   
    12     6    11 1   
    13     6    30 1   
    14     6    31 1   
    15     7     8 1   
    16     7    10 1   
    17     7    32 1   
    18     7    33 1   
    19     8    12 1   
    20     8    34 1   
    21     8    35 1   
    22     9    13 1   
    23     9    36 1   
    24     9    37 1   
    25    10    14 1   
    26    10    38 1   
    27    10    39 1   
    28    11    15 1   
    29    11    40 1   
    30    11    41 1   
    31    12    16 1   
    32    12    42 1   
    33    12    43 1   
    34    13    18 1   
    35    13    44 1   
    36    13    45 1   
    37    14    17 1   
    38    14    46 1   
    39    14    47 1   
    40    15    19 1   
    41    15    48 1   
    42    15    49 1   
    43    16    20 1   
    44    16    50 1   
    45    16    51 1   
    46    17    21 1   
    47    17    52 1   
    48    17    53 1   
    49    18    22 1   
    50    18    54 1   
    51    18    55 1   
    52    19    20 2   
    53    19    56 1   
    54    20    57 1   
    55    21    58 1   
    56    21    59 1   
    57    21    60 1   
    58    23    24 1   
    59    23    25 1   
    60    23    61 1   
    61    24    62 1   
    62    24    63 1   
    63    25    64 1   
    64    25    65 1   
@<TRIPOS>SUBSTRUCTURE
     1 YOG         1 TEMP              0 ****  ****    0 ROOT
