@<TRIPOS>MOLECULE
YOH
   77    78     1     0     0
SMALL
abcg2


@<TRIPOS>ATOM
      1 N1          20.5270    47.3830    13.9900 nu         1 YOH      -0.932100
      2 N3          24.6020    47.6960    12.0150 nu         1 YOH      -0.934100
      3 C4          16.6350    44.8010    12.2550 c3         1 YOH      -0.075400
      4 C5          18.0800    45.2360    12.0430 c3         1 YOH      -0.072400
      5 C6          18.5960    46.1480    13.1490 c3         1 YOH      -0.097400
      6 C7          20.0180    46.6100    12.8770 c3         1 YOH       0.232800
      7 C8          21.7840    47.8440    14.0510 ca         1 YOH       0.441900
      8 C10         21.4900    48.8710    16.3420 ca         1 YOH      -0.128000
      9 C13         24.1180    49.7800    16.1770 ca         1 YOH      -0.206000
     10 C15         23.8480    48.0410    13.0820 ca         1 YOH       0.435900
     11 C17         26.1770    49.0320    10.6440 c3         1 YOH      -0.096400
     12 C20         25.0220    52.6590     9.8650 c3         1 YOH       0.165800
     13 C21         24.9520    53.3280     7.5510 c3         1 YOH       0.150600
     14 C22         24.8770    54.9680     9.2680 c3         1 YOH       0.150600
     15 C24         20.0540    49.4610    18.6830 c3         1 YOH       0.145900
     16 C11         22.0220    49.5870    17.3820 ca         1 YOH       0.082100
     17 C12         23.3670    50.0550    17.2920 ca         1 YOH       0.165100
     18 O           23.7970    50.7460    18.3550 os         1 YOH      -0.319100
     19 C23         25.1270    51.2270    18.3480 c3         1 YOH       0.143900
     20 C14         23.5840    49.0310    15.1030 ca         1 YOH       0.120000
     21 C9          22.2550    48.5890    15.1890 ca         1 YOH      -0.223000
     22 N2          24.3820    48.7640    14.0430 nb         1 YOH      -0.299000
     23 C16         25.9800    48.0590    11.8010 c3         1 YOH       0.236800
     24 C18         25.4720    50.3680    10.8320 c3         1 YOH      -0.075400
     25 C19         25.7600    51.3390     9.6930 c3         1 YOH      -0.078400
     26 N4          25.3890    53.6690     8.8880 n3         1 YOH      -0.713600
     27 N5          22.5790    47.5800    13.0360 nb         1 YOH      -0.350000
     28 C3          16.1430    43.8490    11.1720 c3         1 YOH      -0.077400
     29 C2          14.6900    43.4460    11.3840 c3         1 YOH       0.166800
     30 N           14.2130    42.4410    10.4510 n3         1 YOH      -0.712600
     31 C1          14.1300    42.9360     9.0940 c3         1 YOH       0.150100
     32 C           12.9350    41.9110    10.8760 c3         1 YOH       0.150100
     33 H1          19.8690    47.6560    14.6990 hn         1 YOH       0.494000
     34 H2          24.1350    47.1600    11.3020 hn         1 YOH       0.498000
     35 H3          15.9910    45.6860    12.2850 hc         1 YOH       0.037700
     36 H4          16.5410    44.3210    13.2350 hc         1 YOH       0.037700
     37 H5          18.7210    44.3510    11.9790 hc         1 YOH       0.043700
     38 H6          18.1650    45.7460    11.0770 hc         1 YOH       0.043700
     39 H7          17.9380    47.0180    13.2450 hc         1 YOH       0.042700
     40 H8          18.5590    45.6180    14.1050 hc         1 YOH       0.042700
     41 H9          20.6640    45.7440    12.7110 h1         1 YOH       0.054700
     42 H10         20.0460    47.2000    11.9550 h1         1 YOH       0.054700
     43 H11         20.4730    48.5090    16.4200 ha         1 YOH       0.106000
     44 H12         25.1420    50.1170    16.0860 ha         1 YOH       0.137000
     45 H13         25.8370    48.5660     9.7130 hc         1 YOH       0.040200
     46 H14         27.2520    49.1970    10.5250 hc         1 YOH       0.040200
     47 H15         25.2600    53.0570    10.8570 h1         1 YOH       0.030200
     48 H16         23.9330    52.4730     9.8620 h1         1 YOH       0.030200
     49 H17         25.4060    52.3970     7.2150 h1         1 YOH       0.028867
     50 H18         23.8580    53.2180     7.4720 h1         1 YOH       0.028867
     51 H19         25.2570    54.1080     6.8520 h1         1 YOH       0.028867
     52 H20         25.2150    55.7260     8.5610 h1         1 YOH       0.028867
     53 H21         23.7760    55.0110     9.3000 h1         1 YOH       0.028867
     54 H22         25.2480    55.2440    10.2560 h1         1 YOH       0.028867
     55 H23         19.7240    49.8070    19.6590 h1         1 YOH       0.037033
     56 H24         19.3920    49.8800    17.9190 h1         1 YOH       0.037033
     57 H25         19.9760    48.3700    18.6530 h1         1 YOH       0.037033
     58 H26         25.2750    51.7340    19.2980 h1         1 YOH       0.043367
     59 H27         25.8520    50.4140    18.2630 h1         1 YOH       0.043367
     60 H28         25.2980    51.9380    17.5360 h1         1 YOH       0.043367
     61 H29         26.5630    47.1530    11.6120 h1         1 YOH       0.058700
     62 H30         26.3590    48.4950    12.7240 h1         1 YOH       0.058700
     63 H31         25.7830    50.8150    11.7830 hc         1 YOH       0.047700
     64 H32         24.3930    50.2070    10.9090 hc         1 YOH       0.047700
     65 H33         25.4850    50.8640     8.7470 hc         1 YOH       0.043200
     66 H34         26.8350    51.5370     9.6420 hc         1 YOH       0.043200
     67 H36         16.7630    42.9470    11.1630 hc         1 YOH       0.047200
     68 H37         16.2730    44.3260    10.1970 hc         1 YOH       0.047200
     69 H38         14.0540    44.3510    11.3620 h1         1 YOH       0.027700
     70 H39         14.5940    43.0320    12.3930 h1         1 YOH       0.027700
     71 H41         15.1090    43.2430     8.7260 h1         1 YOH       0.029867
     72 H42         13.7710    42.1450     8.4340 h1         1 YOH       0.029867
     73 H43         13.4470    43.7950     8.9890 h1         1 YOH       0.029867
     74 H44         13.0190    41.4860    11.8770 h1         1 YOH       0.029867
     75 H45         12.1340    42.6680    10.9020 h1         1 YOH       0.029867
     76 H46         12.6140    41.1150    10.2020 h1         1 YOH       0.029867
     77 O1          21.3850    49.9000    18.5280 os         1 YOH      -0.320100
@<TRIPOS>BOND
     1     1     6 1   
     2     1     7 1   
     3     1    33 1   
     4     2    10 1   
     5     2    23 1   
     6     2    34 1   
     7     3     4 1   
     8     3    28 1   
     9     3    35 1   
    10     3    36 1   
    11     4     5 1   
    12     4    37 1   
    13     4    38 1   
    14     5     6 1   
    15     5    39 1   
    16     5    40 1   
    17     6    41 1   
    18     6    42 1   
    19     7    21 ar  
    20     7    27 ar  
    21     8    16 ar  
    22     8    21 ar  
    23     8    43 1   
    24     9    17 ar  
    25     9    20 ar  
    26     9    44 1   
    27    10    22 ar  
    28    10    27 ar  
    29    11    23 1   
    30    11    24 1   
    31    11    45 1   
    32    11    46 1   
    33    12    25 1   
    34    12    26 1   
    35    12    47 1   
    36    12    48 1   
    37    13    26 1   
    38    13    49 1   
    39    13    50 1   
    40    13    51 1   
    41    14    26 1   
    42    14    52 1   
    43    14    53 1   
    44    14    54 1   
    45    15    55 1   
    46    15    56 1   
    47    15    57 1   
    48    15    77 1   
    49    16    17 ar  
    50    16    77 1   
    51    17    18 1   
    52    18    19 1   
    53    19    58 1   
    54    19    59 1   
    55    19    60 1   
    56    20    21 ar  
    57    20    22 ar  
    58    23    61 1   
    59    23    62 1   
    60    24    25 1   
    61    24    63 1   
    62    24    64 1   
    63    25    65 1   
    64    25    66 1   
    65    28    29 1   
    66    28    67 1   
    67    28    68 1   
    68    29    30 1   
    69    29    69 1   
    70    29    70 1   
    71    30    31 1   
    72    30    32 1   
    73    31    71 1   
    74    31    72 1   
    75    31    73 1   
    76    32    74 1   
    77    32    75 1   
    78    32    76 1   
@<TRIPOS>SUBSTRUCTURE
     1 YOH         1 TEMP              0 ****  ****    0 ROOT
