@<TRIPOS>MOLECULE
YOH
   77    78     1     0     0
SMALL
No Charge or Current Charge


@<TRIPOS>ATOM
      1 N1          20.7780    47.1600    13.6980 nu         1 YOH      -0.932100
      2 N3          25.0530    47.1740    11.9850 nu         1 YOH      -0.934100
      3 C4          16.6330    44.6830    12.2200 c3         1 YOH      -0.075400
      4 C5          18.1310    44.9540    11.9590 c3         1 YOH      -0.072400
      5 C6          18.7510    45.9440    12.9700 c3         1 YOH      -0.097400
      6 C7          20.2460    46.2120    12.7070 c3         1 YOH       0.232800
      7 C8          22.0790    47.6480    13.7900 ca         1 YOH       0.441900
      8 C10         21.5740    49.0720    15.7680 ca         1 YOH      -0.128000
      9 C13         24.2600    49.9100    15.7500 ca         1 YOH      -0.206000
     10 C15         24.1890    47.6590    12.9520 ca         1 YOH       0.435900
     11 C17         26.2790    48.8500    10.5780 c3         1 YOH      -0.096400
     12 C20         25.0640    52.6200    10.6250 c3         1 YOH       0.165800
     13 C21         24.5260    53.6370     8.4200 c3         1 YOH       0.150600
     14 C22         24.7890    55.0530    10.4050 c3         1 YOH       0.150600
     15 C24         19.7930    50.1410    17.8060 c3         1 YOH       0.145900
     16 C11         22.0270    49.9940    16.7390 ca         1 YOH       0.082100
     17 C12         23.3770    50.4150    16.7280 ca         1 YOH       0.165100
     18 O           23.7950    51.3200    17.6900 os         1 YOH      -0.319100
     19 C23         25.1470    51.8090    17.7580 c3         1 YOH       0.143900
     20 C14         23.8160    48.9940    14.7830 ca         1 YOH       0.120000
     21 C9          22.4670    48.5720    14.7900 ca         1 YOH      -0.223000
     22 N2          24.6730    48.5260    13.8570 nb         1 YOH      -0.299000
     23 C16         26.3790    47.7030    11.6130 c3         1 YOH       0.236800
     24 C18         25.6630    50.1660    11.1140 c3         1 YOH      -0.075400
     25 C19         25.6940    51.3150    10.0830 c3         1 YOH      -0.078400
     26 N4          25.1970    53.7990     9.7320 n3         1 YOH      -0.713600
     27 N5          22.9420    47.1920    12.8710 nb         1 YOH      -0.350000
     28 C3          16.0120    43.6930    11.2090 c3         1 YOH      -0.077400
     29 C2          14.5110    43.4270    11.4750 c3         1 YOH       0.166800
     30 N           13.9020    42.3720    10.6250 n3         1 YOH      -0.712600
     31 C1          13.9240    42.6820     9.1740 c3         1 YOH       0.150100
     32 C           12.5450    42.0040    11.0870 c3         1 YOH       0.150100
     33 H1          20.1310    47.5110    14.4000 hn         1 YOH       0.494000
     34 H2          24.6160    46.5230    11.3330 hn         1 YOH       0.498000
     35 H3          16.0820    45.6310    12.1780 hc         1 YOH       0.037700
     36 H4          16.5100    44.2850    13.2350 hc         1 YOH       0.037700
     37 H5          18.6810    44.0060    12.0000 hc         1 YOH       0.043700
     38 H6          18.2540    45.3520    10.9440 hc         1 YOH       0.043700
     39 H7          18.2010    46.8930    12.9270 hc         1 YOH       0.042700
     40 H8          18.6290    45.5440    13.9850 hc         1 YOH       0.042700
     41 H9          20.7980    45.2630    12.7580 h1         1 YOH       0.054700
     42 H10         20.3670    46.6190    11.6930 h1         1 YOH       0.054700
     43 H11         20.5400    48.7460    15.7710 ha         1 YOH       0.106000
     44 H12         25.3000    50.2190    15.7230 ha         1 YOH       0.137000
     45 H13         25.7070    48.5050     9.7070 hc         1 YOH       0.040200
     46 H14         27.2930    49.0650    10.2180 hc         1 YOH       0.040200
     47 H15         25.5490    52.8440    11.5850 h1         1 YOH       0.030200
     48 H16         24.0030    52.4330    10.8420 h1         1 YOH       0.030200
     49 H17         24.9520    52.7980     7.8550 h1         1 YOH       0.028867
     50 H18         23.4500    53.4570     8.5490 h1         1 YOH       0.028867
     51 H19         24.6500    54.5400     7.8070 h1         1 YOH       0.028867
     52 H20         24.9740    55.9200     9.7570 h1         1 YOH       0.028867
     53 H21         23.7200    55.0330    10.6580 h1         1 YOH       0.028867
     54 H22         25.3590    55.1990    11.3330 h1         1 YOH       0.028867
     55 H23         19.3190    50.6640    18.6460 h1         1 YOH       0.037033
     56 H24         19.2550    50.4130    16.8890 h1         1 YOH       0.037033
     57 H25         19.6840    49.0620    17.9730 h1         1 YOH       0.037033
     58 H26         25.2540    52.5130    18.5920 h1         1 YOH       0.043367
     59 H27         25.8520    50.9840    17.9170 h1         1 YOH       0.043367
     60 H28         25.4190    52.3340    16.8330 h1         1 YOH       0.043367
     61 H29         26.9670    46.8950    11.1540 h1         1 YOH       0.058700
     62 H30         26.9380    48.0390    12.4990 h1         1 YOH       0.058700
     63 H31         26.2030    50.4760    12.0170 hc         1 YOH       0.047700
     64 H32         24.6210    49.9870    11.4060 hc         1 YOH       0.047700
     65 H33         25.1600    50.9920     9.1820 hc         1 YOH       0.043200
     66 H34         26.7330    51.5130     9.7930 hc         1 YOH       0.043200
     67 H36         16.5570    42.7420    11.2550 hc         1 YOH       0.047200
     68 H37         16.1440    44.0950    10.1980 hc         1 YOH       0.047200
     69 H38         13.9610    44.3700    11.3520 h1         1 YOH       0.027700
     70 H39         14.4110    43.1360    12.5290 h1         1 YOH       0.027700
     71 H41         14.9510    42.7910     8.8050 h1         1 YOH       0.029867
     72 H42         13.4540    41.8730     8.5990 h1         1 YOH       0.029867
     73 H43         13.3790    43.6130     8.9640 h1         1 YOH       0.029867
     74 H44         12.5630    41.6940    12.1400 h1         1 YOH       0.029867
     75 H45         11.8540    42.8520    10.9900 h1         1 YOH       0.029867
     76 H46         12.1470    41.1670    10.4970 h1         1 YOH       0.029867
     77 O1          21.1810    50.5060    17.7120 os         1 YOH      -0.320100
@<TRIPOS>BOND
     1     1     6 1   
     2     1     7 1   
     3     1    33 1   
     4     2    10 1   
     5     2    23 1   
     6     2    34 1   
     7     3     4 1   
     8     3    28 1   
     9     3    35 1   
    10     3    36 1   
    11     4     5 1   
    12     4    37 1   
    13     4    38 1   
    14     5     6 1   
    15     5    39 1   
    16     5    40 1   
    17     6    41 1   
    18     6    42 1   
    19     7    21 ar  
    20     7    27 ar  
    21     8    16 ar  
    22     8    21 ar  
    23     8    43 1   
    24     9    17 ar  
    25     9    20 ar  
    26     9    44 1   
    27    10    22 ar  
    28    10    27 ar  
    29    11    23 1   
    30    11    24 1   
    31    11    45 1   
    32    11    46 1   
    33    12    25 1   
    34    12    26 1   
    35    12    47 1   
    36    12    48 1   
    37    13    26 1   
    38    13    49 1   
    39    13    50 1   
    40    13    51 1   
    41    14    26 1   
    42    14    52 1   
    43    14    53 1   
    44    14    54 1   
    45    15    55 1   
    46    15    56 1   
    47    15    57 1   
    48    15    77 1   
    49    16    17 ar  
    50    16    77 1   
    51    17    18 1   
    52    18    19 1   
    53    19    58 1   
    54    19    59 1   
    55    19    60 1   
    56    20    21 ar  
    57    20    22 ar  
    58    23    61 1   
    59    23    62 1   
    60    24    25 1   
    61    24    63 1   
    62    24    64 1   
    63    25    65 1   
    64    25    66 1   
    65    28    29 1   
    66    28    67 1   
    67    28    68 1   
    68    29    30 1   
    69    29    69 1   
    70    29    70 1   
    71    30    31 1   
    72    30    32 1   
    73    31    71 1   
    74    31    72 1   
    75    31    73 1   
    76    32    74 1   
    77    32    75 1   
    78    32    76 1   
@<TRIPOS>SUBSTRUCTURE
     1 YOH         1 TEMP              0 ****  ****    0 ROOT
