@<TRIPOS>MOLECULE
YOJ
   74    80     1     0     0
SMALL
abcg2


@<TRIPOS>ATOM
      1 C10         42.1260     7.0080    -9.7680 cc         1 YOJ      -0.240300
      2 C13         44.1490     9.1130    -7.9410 cx         1 YOJ      -0.131700
      3 C15         45.3820     9.8660    -7.5490 cx         1 YOJ      -0.125900
      4 C17         42.8340     5.8780    -6.4770 cc         1 YOJ       0.483900
      5 C20         45.4170     5.7790    -3.9470 c          1 YOJ       0.632500
      6 C26         41.0220     6.2260    -9.3480 cc         1 YOJ       0.314500
      7 C28         39.8160     5.4290   -11.3820 ca         1 YOJ      -0.084000
      8 N01         41.8430    14.3140   -11.7700 n8         1 YOJ      -1.009100
      9 O03         43.2640    14.2540    -9.7270 o          1 YOJ      -0.546000
     10 O04         40.7970    14.0210    -9.4230 o          1 YOJ      -0.546000
     11 C05         42.0670    12.0190   -10.4900 ca         1 YOJ      -0.332500
     12 C06         41.0600    11.1910   -10.0040 ca         1 YOJ       0.006000
     13 C07         41.1350     9.8230   -10.1890 ca         1 YOJ      -0.134000
     14 C08         42.2150     9.2540   -10.8620 ca         1 YOJ       0.023700
     15 C09         42.2990     7.7610   -11.0490 c3         1 YOJ       0.049200
     16 C11         42.9960     7.0110    -8.7000 cd         1 YOJ      -0.061300
     17 C12         44.2910     7.7430    -8.5750 c3         1 YOJ       0.014900
     18 C14         44.4520     9.3480    -6.4930 cx         1 YOJ      -0.125900
     19 N16         42.3920     6.2530    -7.7380 na         1 YOJ       0.160300
     20 N18         44.0120     6.0790    -6.0150 nd         1 YOJ      -0.627000
     21 C19         44.1250     5.6150    -4.7290 cd         1 YOJ       0.250500
     22 O21         45.4120     5.2920    -2.8020 o          1 YOJ      -0.701000
     23 O22         46.3360     6.3850    -4.5230 o          1 YOJ      -0.701000
     24 C23         42.9960     5.0360    -4.2410 cc         1 YOJ      -0.246000
     25 S24         41.7350     5.0740    -5.4080 ss         1 YOJ      -0.061400
     26 N25         41.2000     5.7820    -8.1230 nd         1 YOJ      -0.503800
     27 C27         39.7860     5.9140   -10.0760 ca         1 YOJ      -0.129500
     28 C29         38.6380     5.1260   -12.0450 ca         1 YOJ      -0.169000
     29 C30         37.4350     5.3100   -11.3930 ca         1 YOJ       0.178000
     30 F31         36.3060     4.9860   -12.0390 f          1 YOJ      -0.174000
     31 C32         37.3520     5.7960   -10.0930 cp         1 YOJ      -0.050000
     32 C33         36.0660     5.9810    -9.3940 cp         1 YOJ      -0.087000
     33 C34         35.9040     5.4890    -8.1010 ca         1 YOJ      -0.060500
     34 C35         34.7250     5.6730    -7.3970 ca         1 YOJ      -0.142500
     35 C36         33.6800     6.3560    -7.9990 ca         1 YOJ       0.186100
     36 O37         32.4930     6.6230    -7.3690 os         1 YOJ      -0.218200
     37 C38         32.1420     5.9110    -6.2920 cc         1 YOJ      -0.022900
     38 N39         32.0170     6.5010    -5.0940 na         1 YOJ      -0.054200
     39 N40         31.6020     5.6350    -4.1840 nc         1 YOJ      -0.255800
     40 N41         31.4690     4.4960    -4.7670 nd         1 YOJ      -0.341000
     41 C42         31.7850     4.5980    -6.0800 cd         1 YOJ       0.180500
     42 C43         31.7180     3.4630    -7.0680 c          1 YOJ       0.636500
     43 O44         31.3750     2.3560    -6.6230 o          1 YOJ      -0.698500
     44 O45         32.0160     3.7700    -8.2380 o          1 YOJ      -0.698500
     45 C46         33.8180     6.8680    -9.2810 ca         1 YOJ      -0.142500
     46 C47         35.0020     6.6750    -9.9720 ca         1 YOJ      -0.060500
     47 C48         38.5540     6.0870    -9.4520 ca         1 YOJ      -0.061000
     48 C49         43.2160    10.0810   -11.3560 ca         1 YOJ      -0.183000
     49 C50         43.1330    11.4440   -11.1640 ca         1 YOJ       0.278000
     50 F51         44.1050    12.2160   -11.6460 f          1 YOJ      -0.162000
     51 H1          43.3480     9.7150    -8.3560 hc         1 YOJ       0.063700
     52 H2          46.3360     9.3670    -7.6660 hc         1 YOJ       0.078700
     53 H3          45.4130    10.9310    -7.7400 hc         1 YOJ       0.078700
     54 H4          40.7610     5.2600   -11.8830 ha         1 YOJ       0.112000
     55 H5          40.9100    14.1810   -12.1480 hn         1 YOJ       0.469500
     56 H6          42.1300    15.2850   -11.8560 hn         1 YOJ       0.469500
     57 H7          40.2170    11.6180    -9.4790 ha         1 YOJ       0.141000
     58 H8          40.3470     9.1930    -9.7970 ha         1 YOJ       0.142000
     59 H9          41.5260     7.4590   -11.7590 hc         1 YOJ       0.055700
     60 H10         43.2520     7.5040   -11.5160 hc         1 YOJ       0.055700
     61 H11         45.0200     7.1500    -8.0230 hc         1 YOJ       0.070700
     62 H12         44.6890     7.8610    -9.5870 hc         1 YOJ       0.070700
     63 H13         43.8380    10.0590    -5.9550 hc         1 YOJ       0.078700
     64 H14         44.7880     8.5070    -5.9020 hc         1 YOJ       0.078700
     65 H16         42.8410     4.5940    -3.2700 h4         1 YOJ       0.168000
     66 H17         38.6540     4.7310   -13.0520 ha         1 YOJ       0.120000
     67 H18         36.7110     4.9410    -7.6300 ha         1 YOJ       0.110000
     68 H19         34.6360     5.2730    -6.3960 ha         1 YOJ       0.128000
     69 H20         32.1850     7.4680    -4.8480 hn         1 YOJ       0.352000
     70 H22         33.0020     7.4130    -9.7380 ha         1 YOJ       0.128000
     71 H23         35.0990     7.0970   -10.9640 ha         1 YOJ       0.110000
     72 H24         38.5230     6.4840    -8.4440 ha         1 YOJ       0.134000
     73 H25         44.0690     9.6690   -11.8810 ha         1 YOJ       0.132000
     74 S02         41.9870    13.7670   -10.2200 sy         1 YOJ       1.145600
@<TRIPOS>BOND
     1     1     6 1   
     2     1    15 1   
     3     1    16 2   
     4     2     3 1   
     5     2    17 1   
     6     2    18 1   
     7     2    51 1   
     8     3    18 1   
     9     3    52 1   
    10     3    53 1   
    11     4    19 1   
    12     4    20 2   
    13     4    25 1   
    14     5    21 1   
    15     5    22 1   
    16     5    23 1   
    17     6    26 2   
    18     6    27 1   
    19     7    27 ar  
    20     7    28 ar  
    21     7    54 1   
    22     8    55 1   
    23     8    56 1   
    24     8    74 1   
    25     9    74 2   
    26    10    74 2   
    27    11    12 ar  
    28    11    49 ar  
    29    11    74 1   
    30    12    13 ar  
    31    12    57 1   
    32    13    14 ar  
    33    13    58 1   
    34    14    15 1   
    35    14    48 ar  
    36    15    59 1   
    37    15    60 1   
    38    16    17 1   
    39    16    19 1   
    40    17    61 1   
    41    17    62 1   
    42    18    63 1   
    43    18    64 1   
    44    19    26 1   
    45    20    21 1   
    46    21    24 2   
    47    24    25 1   
    48    24    65 1   
    49    27    47 ar  
    50    28    29 ar  
    51    28    66 1   
    52    29    30 1   
    53    29    31 ar  
    54    31    32 1   
    55    31    47 ar  
    56    32    33 ar  
    57    32    46 ar  
    58    33    34 ar  
    59    33    67 1   
    60    34    35 ar  
    61    34    68 1   
    62    35    36 1   
    63    35    45 ar  
    64    36    37 1   
    65    37    38 1   
    66    37    41 2   
    67    38    39 1   
    68    38    69 1   
    69    39    40 2   
    70    40    41 1   
    71    41    42 1   
    72    42    43 1   
    73    42    44 1   
    74    45    46 ar  
    75    45    70 1   
    76    46    71 1   
    77    47    72 1   
    78    48    49 ar  
    79    48    73 1   
    80    49    50 1   
@<TRIPOS>SUBSTRUCTURE
     1 YOJ         1 TEMP              0 ****  ****    0 ROOT
