@<TRIPOS>MOLECULE
YOJ
   74    80     1     0     0
SMALL
No Charge or Current Charge


@<TRIPOS>ATOM
      1 C10         41.6460     7.4040    -9.6460 cc         1 YOJ      -0.240300
      2 C13         44.0130     9.3030    -7.8900 cx         1 YOJ      -0.131700
      3 C15         45.2280    10.1830    -8.0840 cx         1 YOJ      -0.125900
      4 C17         42.3100     6.5270    -6.2210 cc         1 YOJ       0.483900
      5 C20         45.1110     6.2120    -3.8120 c          1 YOJ       0.632500
      6 C26         40.4550     6.7820    -9.1930 cc         1 YOJ       0.314500
      7 C28         39.3460     6.0920   -11.3640 ca         1 YOJ      -0.084000
      8 N01         43.7120    14.4460   -12.0090 n8         1 YOJ      -1.009100
      9 O03         45.4270    13.8360   -10.4030 o          1 YOJ      -0.546000
     10 O04         43.1110    14.6100    -9.6550 o          1 YOJ      -0.546000
     11 C05         43.3540    12.1480   -10.6840 ca         1 YOJ      -0.332500
     12 C06         42.1200    11.8000   -10.0980 ca         1 YOJ       0.006000
     13 C07         41.6340    10.4860   -10.2080 ca         1 YOJ      -0.134000
     14 C08         42.3710     9.5060   -10.8980 ca         1 YOJ       0.023700
     15 C09         41.8360     8.0810   -10.9960 c3         1 YOJ       0.049200
     16 C11         42.5280     7.3670    -8.5930 cd         1 YOJ      -0.061300
     17 C12         43.9400     7.9330    -8.5670 c3         1 YOJ       0.014900
     18 C14         44.9530     9.5680    -6.7350 cx         1 YOJ      -0.125900
     19 N16         41.8110     6.7550    -7.5280 na         1 YOJ       0.160300
     20 N18         43.6000     6.5950    -5.9230 nd         1 YOJ      -0.627000
     21 C19         43.7860     6.2480    -4.5740 cd         1 YOJ       0.250500
     22 O21         45.1140     5.8870    -2.6290 o          1 YOJ      -0.701000
     23 O22         46.1480     6.5040    -4.3990 o          1 YOJ      -0.701000
     24 C23         42.6040     5.9080    -3.9280 cc         1 YOJ      -0.246000
     25 S24         41.2150     5.9900    -4.9790 ss         1 YOJ      -0.061400
     26 N25         40.5230     6.4120    -7.9340 nd         1 YOJ      -0.503800
     27 C27         39.2640     6.4150    -9.9900 ca         1 YOJ      -0.129500
     28 C29         38.2050     5.6940   -12.0760 ca         1 YOJ      -0.169000
     29 C30         36.9670     5.5830   -11.4290 ca         1 YOJ       0.178000
     30 F31         35.9010     5.1640   -12.1480 f          1 YOJ      -0.174000
     31 C32         36.8490     5.8480   -10.0410 cp         1 YOJ      -0.050000
     32 C33         35.5490     5.7140    -9.3090 cp         1 YOJ      -0.087000
     33 C34         35.4920     5.0780    -8.0460 ca         1 YOJ      -0.060500
     34 C35         34.2810     4.9540    -7.3430 ca         1 YOJ      -0.142500
     35 C36         33.0790     5.4710    -7.8940 ca         1 YOJ       0.186100
     36 O37         31.8320     5.4090    -7.2770 os         1 YOJ      -0.218200
     37 C38         31.8660     4.6920    -6.1080 cc         1 YOJ      -0.022900
     38 N39         31.9380     5.1840    -4.8380 na         1 YOJ      -0.054200
     39 N40         31.8280     4.1630    -3.9400 nc         1 YOJ      -0.255800
     40 N41         31.6470     3.0630    -4.6370 nd         1 YOJ      -0.341000
     41 C42         31.6300     3.3410    -6.0090 cd         1 YOJ       0.180500
     42 C43         31.4000     2.3760    -7.1560 c          1 YOJ       0.636500
     43 O44         31.2080     1.1940    -6.8900 o          1 YOJ      -0.698500
     44 O45         31.3990     2.7740    -8.3150 o          1 YOJ      -0.698500
     45 C46         33.1320     6.1130    -9.1430 ca         1 YOJ      -0.142500
     46 C47         34.3450     6.2340    -9.8420 ca         1 YOJ      -0.060500
     47 C48         38.0170     6.2420    -9.3420 ca         1 YOJ      -0.061000
     48 C49         43.5920     9.8640   -11.4990 ca         1 YOJ      -0.183000
     49 C50         44.0830    11.1740   -11.3890 ca         1 YOJ       0.278000
     50 F51         45.2610    11.4700   -11.9830 f          1 YOJ      -0.162000
     51 H1          43.0540     9.8160    -7.8700 hc         1 YOJ       0.063700
     52 H2          46.0600     9.7870    -8.6610 hc         1 YOJ       0.078700
     53 H3          45.0640    11.2520    -8.1980 hc         1 YOJ       0.078700
     54 H4          40.3000     6.0960   -11.8830 ha         1 YOJ       0.112000
     55 H5          43.2670    15.3260   -11.7590 hn         1 YOJ       0.469500
     56 H6          44.6560    14.7410   -12.2460 hn         1 YOJ       0.469500
     57 H7          41.5330    12.5380    -9.5520 ha         1 YOJ       0.141000
     58 H8          40.6860    10.2250    -9.7450 ha         1 YOJ       0.142000
     59 H9          40.8830     8.1600   -11.5260 hc         1 YOJ       0.055700
     60 H10         42.4880     7.4640   -11.6250 hc         1 YOJ       0.055700
     61 H11         44.6490     7.2300    -8.1180 hc         1 YOJ       0.070700
     62 H12         44.3040     8.0290    -9.5940 hc         1 YOJ       0.070700
     63 H13         44.6030    10.2210    -5.9390 hc         1 YOJ       0.078700
     64 H14         45.6040     8.7610    -6.4050 hc         1 YOJ       0.078700
     65 H16         42.4730     5.6040    -2.8980 h4         1 YOJ       0.168000
     66 H17         38.2830     5.4460   -13.1320 ha         1 YOJ       0.120000
     67 H18         36.4000     4.6680    -7.6080 ha         1 YOJ       0.110000
     68 H19         34.3040     4.4560    -6.3780 ha         1 YOJ       0.128000
     69 H20         32.0600     6.1500    -4.5510 hn         1 YOJ       0.352000
     70 H22         32.2220     6.5220    -9.5720 ha         1 YOJ       0.128000
     71 H23         34.3530     6.7490   -10.8000 ha         1 YOJ       0.110000
     72 H24         37.9370     6.4540    -8.2780 ha         1 YOJ       0.134000
     73 H25         44.1710     9.1260   -12.0460 ha         1 YOJ       0.132000
     74 S02         43.9720    13.8160   -10.5280 sy         1 YOJ       1.145600
@<TRIPOS>BOND
     1     1     6 1   
     2     1    15 1   
     3     1    16 2   
     4     2     3 1   
     5     2    17 1   
     6     2    18 1   
     7     2    51 1   
     8     3    18 1   
     9     3    52 1   
    10     3    53 1   
    11     4    19 1   
    12     4    20 2   
    13     4    25 1   
    14     5    21 1   
    15     5    22 1   
    16     5    23 1   
    17     6    26 2   
    18     6    27 1   
    19     7    27 ar  
    20     7    28 ar  
    21     7    54 1   
    22     8    55 1   
    23     8    56 1   
    24     8    74 1   
    25     9    74 2   
    26    10    74 2   
    27    11    12 ar  
    28    11    49 ar  
    29    11    74 1   
    30    12    13 ar  
    31    12    57 1   
    32    13    14 ar  
    33    13    58 1   
    34    14    15 1   
    35    14    48 ar  
    36    15    59 1   
    37    15    60 1   
    38    16    17 1   
    39    16    19 1   
    40    17    61 1   
    41    17    62 1   
    42    18    63 1   
    43    18    64 1   
    44    19    26 1   
    45    20    21 1   
    46    21    24 2   
    47    24    25 1   
    48    24    65 1   
    49    27    47 ar  
    50    28    29 ar  
    51    28    66 1   
    52    29    30 1   
    53    29    31 ar  
    54    31    32 1   
    55    31    47 ar  
    56    32    33 ar  
    57    32    46 ar  
    58    33    34 ar  
    59    33    67 1   
    60    34    35 ar  
    61    34    68 1   
    62    35    36 1   
    63    35    45 ar  
    64    36    37 1   
    65    37    38 1   
    66    37    41 2   
    67    38    39 1   
    68    38    69 1   
    69    39    40 2   
    70    40    41 1   
    71    41    42 1   
    72    42    43 1   
    73    42    44 1   
    74    45    46 ar  
    75    45    70 1   
    76    46    71 1   
    77    47    72 1   
    78    48    49 ar  
    79    48    73 1   
    80    49    50 1   
@<TRIPOS>SUBSTRUCTURE
     1 YOJ         1 TEMP              0 ****  ****    0 ROOT
