@<TRIPOS>MOLECULE
YOO
   63    66     1     0     0
SMALL
abcg2


@<TRIPOS>ATOM
      1 C10        -62.7080    -8.5670   -39.5480 ca         1 YOO       0.136100
      2 C12        -63.2720    -7.3050   -39.3980 ca         1 YOO      -0.170000
      3 C13        -62.9500    -6.5100   -38.2960 ca         1 YOO      -0.039300
      4 C21        -59.8230   -12.1620   -35.3490 ca         1 YOO      -0.179500
      5 C22        -59.0410   -12.9590   -34.5390 ca         1 YOO       0.014000
      6 O18        -59.8820    -7.9050   -35.8050 o          1 YOO      -0.566100
      7 C7         -61.5080    -8.2670   -37.4830 ca         1 YOO      -0.122600
      8 C15        -62.0610    -6.9930   -37.3500 ca         1 YOO      -0.094000
      9 C32        -63.5580    -5.1410   -38.1400 c6         1 YOO      -0.022400
     10 C33        -63.2120    -4.2090   -39.3030 c6         1 YOO      -0.069400
     11 C34        -63.8620    -2.8480   -39.1170 c6         1 YOO       0.164800
     12 N35        -65.3020    -2.9630   -38.9770 n3         1 YOO      -0.716600
     13 C38        -65.9260    -1.6630   -38.8910 c3         1 YOO       0.152100
     14 C36        -65.6520    -3.7910   -37.8390 c6         1 YOO       0.164800
     15 C37        -65.0770    -5.1920   -37.9720 c6         1 YOO      -0.069400
     16 O30        -62.9460    -9.3840   -40.5890 os         1 YOO      -0.342100
     17 C39        -63.8500    -8.9600   -41.5900 c3         1 YOO       0.147900
     18 C8         -61.8230    -9.0510   -38.5820 ca         1 YOO      -0.127000
     19 N5         -60.4930   -10.0560   -36.2200 ns         1 YOO      -0.145000
     20 C4         -59.6660   -10.7710   -35.3610 ca         1 YOO       0.038000
     21 C3         -58.6990   -10.1930   -34.5340 ca         1 YOO      -0.179500
     22 C2         -57.9180   -10.9950   -33.7200 ca         1 YOO       0.014000
     23 C1         -58.0860   -12.3730   -33.7140 ca         1 YOO      -0.341500
     24 S40        -57.1190   -13.3700   -32.6220 sy         1 YOO       1.180600
     25 O46        -55.8990   -12.6380   -32.3220 o          1 YOO      -0.540000
     26 O47        -57.0480   -14.7090   -33.1860 o          1 YOO      -0.540000
     27 N41        -57.9580   -13.4890   -31.2240 n3         1 YOO      -0.754500
     28 C42        -59.1810   -14.3110   -31.1780 c5         1 YOO       0.211800
     29 C43        -60.0690   -13.5800   -30.1730 c5         1 YOO      -0.088900
     30 C44        -59.0830   -12.7960   -29.3140 c5         1 YOO      -0.088900
     31 C45        -58.0480   -12.3310   -30.3270 c5         1 YOO       0.211800
     32 H1         -63.9640    -6.9220   -40.1370 ha         1 YOO       0.125000
     33 H3         -59.1750   -14.0320   -34.5690 ha         1 YOO       0.134500
     34 H4         -61.8020    -6.3800   -36.4960 ha         1 YOO       0.136000
     35 H5         -63.1420    -4.6960   -37.2280 hc         1 YOO       0.054700
     36 H6         -62.1290    -4.0860   -39.3790 hc         1 YOO       0.049700
     37 H7         -63.5530    -4.6440   -40.2470 hc         1 YOO       0.049700
     38 H8         -63.6440    -2.2160   -39.9820 h1         1 YOO       0.032200
     39 H9         -63.4140    -2.3460   -38.2400 h1         1 YOO       0.032200
     40 H11        -65.6980    -1.0760   -39.7820 h1         1 YOO       0.031033
     41 H12        -67.0100    -1.7700   -38.8310 h1         1 YOO       0.031033
     42 H13        -65.5970    -1.0820   -38.0150 h1         1 YOO       0.031033
     43 H14        -66.7410    -3.8470   -37.7680 h1         1 YOO       0.032200
     44 H15        -65.2980    -3.3420   -36.8920 h1         1 YOO       0.032200
     45 H16        -65.3420    -5.7770   -37.0880 hc         1 YOO       0.049700
     46 H17        -65.5300    -5.6890   -38.8350 hc         1 YOO       0.049700
     47 H18        -63.9010    -9.7640   -42.3200 h1         1 YOO       0.044033
     48 H19        -64.8520    -8.7860   -41.1890 h1         1 YOO       0.044033
     49 H20        -63.5080    -8.0510   -42.0910 h1         1 YOO       0.044033
     50 H21        -61.3780   -10.0270   -38.7380 ha         1 YOO       0.127000
     51 H22        -61.1620   -10.6180   -36.7250 hn         1 YOO       0.160000
     52 H23        -58.5410    -9.1290   -34.5180 ha         1 YOO       0.133500
     53 H24        -57.1680   -10.5270   -33.0970 ha         1 YOO       0.134500
     54 H25        -59.6700   -14.3910   -32.1510 h1         1 YOO       0.056450
     55 H26        -58.9310   -15.3190   -30.8480 h1         1 YOO       0.056450
     56 H27        -60.7350   -12.8910   -30.6960 hc         1 YOO       0.054700
     57 H28        -60.6870   -14.2700   -29.5990 hc         1 YOO       0.054700
     58 H29        -58.6150   -13.4470   -28.5720 hc         1 YOO       0.054700
     59 H30        -59.5400   -11.9590   -28.7880 hc         1 YOO       0.054700
     60 H31        -57.0810   -12.1120   -29.8800 h1         1 YOO       0.056450
     61 H32        -58.4010   -11.4350   -30.8500 h1         1 YOO       0.056450
     62 C6         -60.5450    -8.7100   -36.4300 c          1 YOO       0.624700
     63 H2         -60.5600   -12.6260   -35.9930 ha         1 YOO       0.133500
@<TRIPOS>BOND
     1     1     2 ar  
     2     1    16 1   
     3     1    18 ar  
     4     2     3 ar  
     5     2    32 1   
     6     3     8 ar  
     7     3     9 1   
     8     4     5 ar  
     9     4    20 ar  
    10     4    63 1   
    11     5    23 ar  
    12     5    33 1   
    13     6    62 2   
    14     7     8 ar  
    15     7    18 ar  
    16     7    62 1   
    17     8    34 1   
    18     9    10 1   
    19     9    15 1   
    20     9    35 1   
    21    10    11 1   
    22    10    36 1   
    23    10    37 1   
    24    11    12 1   
    25    11    38 1   
    26    11    39 1   
    27    12    13 1   
    28    12    14 1   
    29    13    40 1   
    30    13    41 1   
    31    13    42 1   
    32    14    15 1   
    33    14    43 1   
    34    14    44 1   
    35    15    45 1   
    36    15    46 1   
    37    16    17 1   
    38    17    47 1   
    39    17    48 1   
    40    17    49 1   
    41    18    50 1   
    42    19    20 1   
    43    19    51 1   
    44    19    62 1   
    45    20    21 ar  
    46    21    22 ar  
    47    21    52 1   
    48    22    23 ar  
    49    22    53 1   
    50    23    24 1   
    51    24    25 2   
    52    24    26 2   
    53    24    27 1   
    54    27    28 1   
    55    27    31 1   
    56    28    29 1   
    57    28    54 1   
    58    28    55 1   
    59    29    30 1   
    60    29    56 1   
    61    29    57 1   
    62    30    31 1   
    63    30    58 1   
    64    30    59 1   
    65    31    60 1   
    66    31    61 1   
@<TRIPOS>SUBSTRUCTURE
     1 YOO         1 TEMP              0 ****  ****    0 ROOT
