@<TRIPOS>MOLECULE
YOO
   63    66     1     0     0
SMALL
No Charge or Current Charge


@<TRIPOS>ATOM
      1 C10        -63.1860    -8.6830   -39.0190 ca         1 YOO       0.136100
      2 C12        -63.6370    -7.3580   -39.1850 ca         1 YOO      -0.170000
      3 C13        -63.1850    -6.3410   -38.3220 ca         1 YOO      -0.039300
      4 C21        -59.2450   -11.6180   -35.2390 ca         1 YOO      -0.179500
      5 C22        -58.4000   -12.3500   -34.3870 ca         1 YOO       0.014000
      6 O18        -60.4420    -7.3950   -35.2310 o          1 YOO      -0.566100
      7 C7         -61.8130    -7.9840   -37.1070 ca         1 YOO      -0.122600
      8 C15        -62.2790    -6.6620   -37.2920 ca         1 YOO      -0.094000
      9 C32        -63.6700    -4.8920   -38.4930 c6         1 YOO      -0.022400
     10 C33        -63.2650    -4.2960   -39.8670 c6         1 YOO      -0.069400
     11 C34        -63.7780    -2.8430   -40.0160 c6         1 YOO       0.164800
     12 N35        -65.2530    -2.7600   -39.8260 n3         1 YOO      -0.716600
     13 C38        -65.7750    -1.3980   -40.0700 c3         1 YOO       0.152100
     14 C36        -65.6640    -3.2940   -38.4980 c6         1 YOO       0.164800
     15 C37        -65.2040    -4.7600   -38.3060 c6         1 YOO      -0.069400
     16 O30        -63.5990    -9.7150   -39.8370 os         1 YOO      -0.342100
     17 C39        -64.5220    -9.5150   -40.9230 c3         1 YOO       0.147900
     18 C8         -62.2830    -8.9900   -37.9890 ca         1 YOO      -0.127000
     19 N5         -60.4230    -9.6060   -35.8760 ns         1 YOO      -0.145000
     20 C4         -59.5570   -10.2730   -34.9670 ca         1 YOO       0.038000
     21 C3         -59.0130    -9.6690   -33.8130 ca         1 YOO      -0.179500
     22 C2         -58.1670   -10.3950   -32.9560 ca         1 YOO       0.014000
     23 C1         -57.8560   -11.7370   -33.2450 ca         1 YOO      -0.341500
     24 S40        -56.7890   -12.6840   -32.1470 sy         1 YOO       1.180600
     25 O46        -56.1850   -11.7920   -31.1510 o          1 YOO      -0.540000
     26 O47        -55.9910   -13.5960   -32.9740 o          1 YOO      -0.540000
     27 N41        -57.9070   -13.6610   -31.3270 n3         1 YOO      -0.754500
     28 C42        -59.1660   -13.0790   -30.8360 c5         1 YOO       0.211800
     29 C43        -59.8820   -14.3490   -30.3220 c5         1 YOO      -0.088900
     30 C44        -58.7220   -15.1860   -29.7010 c5         1 YOO      -0.088900
     31 C45        -57.4290   -14.4780   -30.1980 c5         1 YOO       0.211800
     32 H1         -64.3350    -7.1050   -39.9770 ha         1 YOO       0.125000
     33 H3         -58.1770   -13.3920   -34.6150 ha         1 YOO       0.134500
     34 H4         -61.9330    -5.8720   -36.6280 ha         1 YOO       0.136000
     35 H5         -63.1930    -4.2750   -37.7180 hc         1 YOO       0.054700
     36 H6         -62.1730    -4.3140   -39.9760 hc         1 YOO       0.049700
     37 H7         -63.6720    -4.9060   -40.6840 hc         1 YOO       0.049700
     38 H8         -63.5030    -2.4740   -41.0150 h1         1 YOO       0.032200
     39 H9         -63.2640    -2.2030   -39.2830 h1         1 YOO       0.032200
     40 H11        -65.5100    -1.0560   -41.0790 h1         1 YOO       0.031033
     41 H12        -66.8700    -1.3810   -39.9840 h1         1 YOO       0.031033
     42 H13        -65.3620    -0.6840   -39.3450 h1         1 YOO       0.031033
     43 H14        -66.7580    -3.2530   -38.3940 h1         1 YOO       0.032200
     44 H15        -65.2400    -2.6760   -37.6920 h1         1 YOO       0.032200
     45 H16        -65.4900    -5.1080   -37.3050 hc         1 YOO       0.049700
     46 H17        -65.7340    -5.4000   -39.0240 hc         1 YOO       0.049700
     47 H18        -64.7120   -10.4640   -41.4410 h1         1 YOO       0.044033
     48 H19        -65.4820    -9.1310   -40.5540 h1         1 YOO       0.044033
     49 H20        -64.1160    -8.8050   -41.6550 h1         1 YOO       0.044033
     50 H21        -61.9610   -10.0230   -37.8940 ha         1 YOO       0.127000
     51 H22        -60.8150   -10.2160   -36.5780 hn         1 YOO       0.160000
     52 H23        -59.2380    -8.6400   -33.5530 ha         1 YOO       0.133500
     53 H24        -57.7630    -9.9090   -32.0690 ha         1 YOO       0.134500
     54 H25        -58.9890   -12.3540   -30.0280 h1         1 YOO       0.056450
     55 H26        -59.7510   -12.5820   -31.6220 h1         1 YOO       0.056450
     56 H27        -60.6710   -14.1160   -29.6000 hc         1 YOO       0.054700
     57 H28        -60.3500   -14.8890   -31.1540 hc         1 YOO       0.054700
     58 H29        -58.7630   -16.2270   -30.0410 hc         1 YOO       0.054700
     59 H30        -58.7650   -15.2020   -28.6060 hc         1 YOO       0.054700
     60 H31        -56.6580   -15.2000   -30.5000 h1         1 YOO       0.056450
     61 H32        -57.0050   -13.8460   -29.4050 h1         1 YOO       0.056450
     62 C6         -60.8350    -8.2830   -35.9810 c          1 YOO       0.624700
     63 H2         -59.6590   -12.1060   -36.1180 ha         1 YOO       0.133500
@<TRIPOS>BOND
     1     1     2 ar  
     2     1    16 1   
     3     1    18 ar  
     4     2     3 ar  
     5     2    32 1   
     6     3     8 ar  
     7     3     9 1   
     8     4     5 ar  
     9     4    20 ar  
    10     4    63 1   
    11     5    23 ar  
    12     5    33 1   
    13     6    62 2   
    14     7     8 ar  
    15     7    18 ar  
    16     7    62 1   
    17     8    34 1   
    18     9    10 1   
    19     9    15 1   
    20     9    35 1   
    21    10    11 1   
    22    10    36 1   
    23    10    37 1   
    24    11    12 1   
    25    11    38 1   
    26    11    39 1   
    27    12    13 1   
    28    12    14 1   
    29    13    40 1   
    30    13    41 1   
    31    13    42 1   
    32    14    15 1   
    33    14    43 1   
    34    14    44 1   
    35    15    45 1   
    36    15    46 1   
    37    16    17 1   
    38    17    47 1   
    39    17    48 1   
    40    17    49 1   
    41    18    50 1   
    42    19    20 1   
    43    19    51 1   
    44    19    62 1   
    45    20    21 ar  
    46    21    22 ar  
    47    21    52 1   
    48    22    23 ar  
    49    22    53 1   
    50    23    24 1   
    51    24    25 2   
    52    24    26 2   
    53    24    27 1   
    54    27    28 1   
    55    27    31 1   
    56    28    29 1   
    57    28    54 1   
    58    28    55 1   
    59    29    30 1   
    60    29    56 1   
    61    29    57 1   
    62    30    31 1   
    63    30    58 1   
    64    30    59 1   
    65    31    60 1   
    66    31    61 1   
@<TRIPOS>SUBSTRUCTURE
     1 YOO         1 TEMP              0 ****  ****    0 ROOT
