@<TRIPOS>MOLECULE
YOP
   24    24     1     0     0
SMALL
No Charge or Current Charge


@<TRIPOS>ATOM
      1 CA          13.1700    -2.2610    16.4940 c3         1 YOP       0.157500
      2 CB          14.0710    -3.1260    15.5610 c3         1 YOP      -0.012200
      3 C           12.8660    -0.8520    15.8940 c3         1 YOP       0.126600
      4 CG          14.5810    -4.4560    16.1100 cc         1 YOP      -0.192400
      5 CD1         14.4430    -4.8920    17.4240 cd         1 YOP      -0.086000
      6 CE1         14.9850    -6.1690    17.8140 cd         1 YOP      -0.287000
      7 CF          15.6370    -6.9460    16.8830 cc         1 YOP      -0.046400
      8 CD2         15.2910    -5.2960    15.1040 c          1 YOP       0.546200
      9 N           11.9040    -2.9730    16.8190 n8         1 YOP      -0.997200
     10 NE2         15.7650    -6.4900    15.5840 ns         1 YOP      -0.364100
     11 OD2         15.4660    -4.9860    13.9340 o          1 YOP      -0.575000
     12 O           14.0600    -0.0640    15.7770 oh         1 YOP      -0.653000
     13 HA          13.7130    -2.0950    17.4360 h1         1 YOP       0.071700
     14 HB1         14.9440    -2.5250    15.2770 hc         1 YOP       0.065700
     15 HB2         13.5200    -3.3020    14.6290 hc         1 YOP       0.065700
     16 HC2         12.1510    -0.3330    16.5460 h1         1 YOP       0.015200
     17 HC1         12.3930    -0.9690    14.9100 h1         1 YOP       0.015200
     18 HD1         13.9270    -4.2830    18.1630 ha         1 YOP       0.197000
     19 HE1         14.8800    -6.5200    18.8390 ha         1 YOP       0.198000
     20 HF          16.0850    -7.9220    17.0570 h4         1 YOP       0.197000
     21 H           11.2950    -2.3470    17.3600 hn         1 YOP       0.394500
     22 H42         13.7950     0.8100    15.4110 ho         1 YOP       0.445000
     23 H2          11.3760    -3.1320    15.9530 hn         1 YOP       0.394500
     24 HE2         16.2460    -7.0620    14.8990 hn         1 YOP       0.323500
@<TRIPOS>BOND
     1     1     2 1   
     2     1     3 1   
     3     1     9 1   
     4     1    13 1   
     5     2     4 1   
     6     2    14 1   
     7     2    15 1   
     8     3    12 1   
     9     3    16 1   
    10     3    17 1   
    11     4     5 2   
    12     4     8 1   
    13     5     6 1   
    14     5    18 1   
    15     6     7 2   
    16     6    19 1   
    17     7    10 1   
    18     7    20 1   
    19     8    10 1   
    20     8    11 2   
    21     9    21 1   
    22     9    23 1   
    23    10    24 1   
    24    12    22 1   
@<TRIPOS>SUBSTRUCTURE
     1 YOP         1 TEMP              0 ****  ****    0 ROOT
