@<TRIPOS>MOLECULE
YOP
   24    24     1     0     0
SMALL
abcg2


@<TRIPOS>ATOM
      1 CA          13.1680    -2.2970    16.5020 c3         1 YOP       0.157500
      2 CB          14.0130    -3.1260    15.5430 c3         1 YOP      -0.012200
      3 C           12.9130    -0.9020    15.9340 c3         1 YOP       0.126600
      4 CG          14.5430    -4.4300    16.0650 cc         1 YOP      -0.192400
      5 CD1         14.4040    -4.8720    17.3470 cd         1 YOP      -0.086000
      6 CE1         14.9570    -6.1020    17.7850 cd         1 YOP      -0.287000
      7 CF          15.6360    -6.8530    16.8880 cc         1 YOP      -0.046400
      8 CD2         15.2730    -5.2400    15.1090 c          1 YOP       0.546200
      9 N           11.9240    -2.9940    16.7960 n8         1 YOP      -0.997200
     10 NE2         15.7740    -6.4220    15.6120 ns         1 YOP      -0.364100
     11 OD2         15.4590    -4.9410    13.9300 o          1 YOP      -0.575000
     12 O           14.1310    -0.2040    15.8060 oh         1 YOP      -0.653000
     13 HA          13.7080    -2.1720    17.4480 h1         1 YOP       0.071700
     14 HB1         14.8600    -2.5230    15.2030 hc         1 YOP       0.065700
     15 HB2         13.4220    -3.3160    14.6390 hc         1 YOP       0.065700
     16 HC2         12.2230    -0.3780    16.6100 h1         1 YOP       0.015200
     17 HC1         12.3970    -1.0040    14.9680 h1         1 YOP       0.015200
     18 HD1         13.8480    -4.2790    18.0600 ha         1 YOP       0.197000
     19 HE1         14.8400    -6.4380    18.8040 ha         1 YOP       0.198000
     20 HF          16.0910    -7.8050    17.1200 h4         1 YOP       0.197000
     21 H           11.3540    -2.4360    17.4200 hn         1 YOP       0.394500
     22 H42         13.9530     0.6430    15.3880 ho         1 YOP       0.445000
     23 H2          11.3860    -3.1000    15.9430 hn         1 YOP       0.394500
     24 HE2         16.2870    -7.0010    14.9600 hn         1 YOP       0.323500
@<TRIPOS>BOND
     1     1     2 1   
     2     1     3 1   
     3     1     9 1   
     4     1    13 1   
     5     2     4 1   
     6     2    14 1   
     7     2    15 1   
     8     3    12 1   
     9     3    16 1   
    10     3    17 1   
    11     4     5 2   
    12     4     8 1   
    13     5     6 1   
    14     5    18 1   
    15     6     7 2   
    16     6    19 1   
    17     7    10 1   
    18     7    20 1   
    19     8    10 1   
    20     8    11 2   
    21     9    21 1   
    22     9    23 1   
    23    10    24 1   
    24    12    22 1   
@<TRIPOS>SUBSTRUCTURE
     1 YOP         1 TEMP              0 ****  ****    0 ROOT
