@<TRIPOS>MOLECULE
YOR
   57    62     1     0     0
SMALL
No Charge or Current Charge


@<TRIPOS>ATOM
      1 N1         -22.6430   -24.7700    11.8580 ns         1 YOR      -0.511900
      2 N3         -18.9300   -23.0610     9.9890 ns         1 YOR      -0.164000
      3 C4         -21.6780   -19.7060    11.9810 ca         1 YOR      -0.105000
      4 C5         -21.0010   -20.6310    12.7860 ca         1 YOR      -0.128000
      5 C6         -21.0520   -21.9990    12.4760 ca         1 YOR      -0.087000
      6 C7         -21.7740   -22.4660    11.3540 ca         1 YOR      -0.102300
      7 C8         -21.7500   -23.9630    11.0100 c5         1 YOR       0.214300
      8 C10        -20.5300   -25.6670    12.1090 ca         1 YOR      -0.102600
      9 C13        -16.9040   -27.8830    13.4220 cy         1 YOR       0.161500
     10 C15        -17.1200   -27.6550    14.9580 cy         1 YOR       0.131100
     11 C17        -19.1130   -24.2090    10.7900 ca         1 YOR       0.034000
     12 C20        -18.7300   -20.3480     9.3100 cc         1 YOR      -0.132400
     13 C21        -19.7840   -19.2210     7.3390 ca         1 YOR      -0.172000
     14 C22        -20.2720   -18.3770     6.3300 ca         1 YOR      -0.082000
     15 C24        -21.3530   -20.3070     5.3020 ca         1 YOR      -0.112000
     16 C26        -20.0650   -20.5760     7.3460 ca         1 YOR      -0.041800
     17 C2         -22.4810   -21.5250    10.5580 ca         1 YOR      -0.052300
     18 C3         -22.4180   -20.1530    10.8770 ca         1 YOR      -0.119000
     19 C9         -21.9600   -25.7860    12.4880 c          1 YOR       0.577600
     20 O1         -22.4610   -26.6160    13.2300 o          1 YOR      -0.546000
     21 C11        -19.4290   -26.4200    12.5440 ca         1 YOR      -0.137000
     22 C12        -18.1450   -26.0470    12.0980 ca         1 YOR       0.337000
     23 N2         -17.0030   -26.7400    12.5050 nu         1 YOR      -0.962200
     24 C14        -15.4910   -28.3640    13.9000 cy         1 YOR       0.131100
     25 O2         -16.1170   -28.7110    15.1900 oq         1 YOR      -0.441000
     26 C16        -17.9930   -24.9380    11.2400 ca         1 YOR      -0.205000
     27 C18        -19.6090   -22.6780     8.8460 c          1 YOR       0.641300
     28 O3         -20.2790   -23.4740     8.1980 o          1 YOR      -0.580100
     29 C19        -19.4490   -21.2250     8.5010 cd         1 YOR      -0.150400
     30 S          -18.7720   -18.6760     8.6990 ss         1 YOR       0.091400
     31 C23        -21.0640   -18.9280     5.3060 ca         1 YOR      -0.099000
     32 C25        -20.8540   -21.1410     6.3230 ca         1 YOR      -0.061000
     33 C27        -20.3870   -24.6000    11.2440 ca         1 YOR      -0.140300
     34 H1         -23.6410   -24.6580    11.9870 hn         1 YOR       0.333500
     35 H2         -18.3110   -22.3680    10.3830 hn         1 YOR       0.163000
     36 H3         -21.6370   -18.6450    12.2170 ha         1 YOR       0.114000
     37 H4         -20.4330   -20.2900    13.6480 ha         1 YOR       0.115000
     38 H5         -20.5150   -22.7000    13.1110 ha         1 YOR       0.121000
     39 H6         -22.0150   -24.1130     9.9560 h1         1 YOR       0.092700
     40 H7         -17.5110   -28.7080    13.0290 h1         1 YOR       0.067700
     41 H9         -18.1110   -27.9170    15.3430 h1         1 YOR       0.060700
     42 H10        -18.1930   -20.5290    10.2330 h4         1 YOR       0.226000
     43 H11        -20.0440   -17.3130     6.3380 ha         1 YOR       0.122000
     44 H12        -21.9640   -20.7310     4.5080 ha         1 YOR       0.117000
     45 H13        -22.6890   -22.2750     8.5230 hc         1 YOR       0.050033
     46 H14        -23.9910   -22.7830     9.6160 hc         1 YOR       0.050033
     47 H15        -23.9520   -21.1350     8.9900 hc         1 YOR       0.050033
     48 H16        -22.9470   -19.4260    10.2650 ha         1 YOR       0.115000
     49 H17        -19.5710   -27.2540    13.2230 ha         1 YOR       0.138000
     50 H18        -16.1320   -26.3840    12.1040 hn         1 YOR       0.487000
     51 H19        -15.0840   -29.2360    13.3760 h1         1 YOR       0.060700
     52 H20        -14.7440   -27.5690    14.0120 h1         1 YOR       0.060700
     53 H21        -16.9990   -24.6400    10.9190 ha         1 YOR       0.116000
     54 H22        -21.4510   -18.2890     4.5150 ha         1 YOR       0.116000
     55 H23        -21.0870   -22.2000     6.2980 ha         1 YOR       0.138000
     56 C1         -23.3210   -21.9540     9.3580 c3         1 YOR      -0.058800
     57 H8         -16.7800   -26.6810    15.3310 h1         1 YOR       0.060700
@<TRIPOS>BOND
     1     1     7 1   
     2     1    19 1   
     3     1    34 1   
     4     2    11 1   
     5     2    27 1   
     6     2    35 1   
     7     3     4 ar  
     8     3    18 ar  
     9     3    36 1   
    10     4     5 ar  
    11     4    37 1   
    12     5     6 ar  
    13     5    38 1   
    14     6     7 1   
    15     6    17 ar  
    16     7    33 1   
    17     7    39 1   
    18     8    19 1   
    19     8    21 ar  
    20     8    33 ar  
    21     9    10 1   
    22     9    23 1   
    23     9    24 1   
    24     9    40 1   
    25    10    25 1   
    26    10    41 1   
    27    10    57 1   
    28    11    26 ar  
    29    11    33 ar  
    30    12    29 2   
    31    12    30 1   
    32    12    42 1   
    33    13    14 ar  
    34    13    16 ar  
    35    13    30 1   
    36    14    31 ar  
    37    14    43 1   
    38    15    31 ar  
    39    15    32 ar  
    40    15    44 1   
    41    16    29 1   
    42    16    32 ar  
    43    17    18 ar  
    44    17    56 1   
    45    18    48 1   
    46    19    20 2   
    47    21    22 ar  
    48    21    49 1   
    49    22    23 1   
    50    22    26 ar  
    51    23    50 1   
    52    24    25 1   
    53    24    51 1   
    54    24    52 1   
    55    26    53 1   
    56    27    28 2   
    57    27    29 1   
    58    31    54 1   
    59    32    55 1   
    60    45    56 1   
    61    46    56 1   
    62    47    56 1   
@<TRIPOS>SUBSTRUCTURE
     1 YOR         1 TEMP              0 ****  ****    0 ROOT
