@<TRIPOS>MOLECULE
YOR
   57    62     1     0     0
SMALL
abcg2


@<TRIPOS>ATOM
      1 N1         -22.5400   -24.6470    12.1810 ns         1 YOR      -0.511900
      2 N3         -19.0430   -22.8860    10.0960 ns         1 YOR      -0.164000
      3 C4         -21.8420   -19.6670    12.4410 ca         1 YOR      -0.105000
      4 C5         -21.0700   -20.5820    13.1430 ca         1 YOR      -0.128000
      5 C6         -21.0650   -21.9100    12.7490 ca         1 YOR      -0.087000
      6 C7         -21.8150   -22.3430    11.6590 ca         1 YOR      -0.102300
      7 C8         -21.7730   -23.8090    11.2740 c5         1 YOR       0.214300
      8 C10        -20.4610   -25.5240    12.2380 ca         1 YOR      -0.102600
      9 C13        -16.9800   -27.8300    13.0440 cy         1 YOR       0.161500
     10 C15        -17.1470   -27.8180    14.5730 cy         1 YOR       0.131100
     11 C17        -19.1810   -24.0510    10.8670 ca         1 YOR       0.034000
     12 C20        -19.6480   -20.1500     9.4460 cc         1 YOR      -0.132400
     13 C21        -19.9810   -19.3330     7.1400 ca         1 YOR      -0.172000
     14 C22        -20.1450   -18.6580     5.9340 ca         1 YOR      -0.082000
     15 C24        -20.2870   -20.8070     4.8390 ca         1 YOR      -0.112000
     16 C26        -19.9670   -20.7370     7.2180 ca         1 YOR      -0.041800
     17 C2         -22.6080   -21.4290    10.9570 ca         1 YOR      -0.052300
     18 C3         -22.6020   -20.0950    11.3650 ca         1 YOR      -0.119000
     19 C9         -21.8500   -25.6630    12.7440 c          1 YOR       0.577600
     20 O1         -22.2760   -26.5040    13.5150 o          1 YOR      -0.546000
     21 C11        -19.3550   -26.2750    12.5890 ca         1 YOR      -0.137000
     22 C12        -18.1140   -25.8980    12.0600 ca         1 YOR       0.337000
     23 N2         -16.9640   -26.5630    12.3780 nu         1 YOR      -0.962200
     24 C14        -15.5980   -28.4090    13.3580 cy         1 YOR       0.131100
     25 O2         -15.8770   -28.4500    14.7600 oq         1 YOR      -0.441000
     26 C16        -18.0550   -24.7850    11.1990 ca         1 YOR      -0.205000
     27 C18        -19.8010   -22.5960     9.0080 c          1 YOR       0.641300
     28 O3         -20.4910   -23.4290     8.4440 o          1 YOR      -0.580100
     29 C19        -19.7590   -21.1840     8.5730 cd         1 YOR      -0.150400
     30 S          -19.7720   -18.6080     8.7030 ss         1 YOR       0.091400
     31 C23        -20.3000   -19.4080     4.7850 ca         1 YOR      -0.099000
     32 C25        -20.1240   -21.4730     6.0360 ca         1 YOR      -0.061000
     33 C27        -20.4120   -24.4380    11.3880 ca         1 YOR      -0.140300
     34 H1         -23.5290   -24.5130    12.3250 hn         1 YOR       0.333500
     35 H2         -18.3250   -22.2330    10.3710 hn         1 YOR       0.163000
     36 H3         -21.8530   -18.6240    12.7300 ha         1 YOR       0.114000
     37 H4         -20.4760   -20.2650    13.9900 ha         1 YOR       0.115000
     38 H5         -20.4560   -22.6210    13.2960 ha         1 YOR       0.121000
     39 H6         -22.1550   -23.9360    10.2580 h1         1 YOR       0.092700
     40 H7         -17.6490   -28.5420    12.5480 h1         1 YOR       0.067700
     41 H9         -17.9730   -28.4160    14.9680 h1         1 YOR       0.060700
     42 H10        -19.5410   -20.2090    10.5200 h4         1 YOR       0.226000
     43 H11        -20.1510   -17.5770     5.8970 ha         1 YOR       0.122000
     44 H12        -20.4090   -21.3750     3.9260 ha         1 YOR       0.117000
     45 H13        -22.8500   -22.1820     8.9450 hc         1 YOR       0.050033
     46 H14        -24.1480   -22.6400    10.0350 hc         1 YOR       0.050033
     47 H15        -24.0490   -20.9930     9.4300 hc         1 YOR       0.050033
     48 H16        -23.2070   -19.3780    10.8220 ha         1 YOR       0.115000
     49 H17        -19.4620   -27.1080    13.2720 ha         1 YOR       0.138000
     50 H18        -16.1480   -26.3510    11.8270 hn         1 YOR       0.487000
     51 H19        -15.3930   -29.3960    12.9380 h1         1 YOR       0.060700
     52 H20        -14.7660   -27.7400    13.1120 h1         1 YOR       0.060700
     53 H21        -17.0960   -24.4870    10.7900 ha         1 YOR       0.116000
     54 H22        -20.4300   -18.9080     3.8350 ha         1 YOR       0.116000
     55 H23        -20.1190   -22.5530     6.0600 ha         1 YOR       0.138000
     56 C1         -23.4560   -21.8350     9.7830 c3         1 YOR      -0.058800
     57 H8         -17.1890   -26.8140    15.0060 h1         1 YOR       0.060700
@<TRIPOS>BOND
     1     1     7 1   
     2     1    19 1   
     3     1    34 1   
     4     2    11 1   
     5     2    27 1   
     6     2    35 1   
     7     3     4 ar  
     8     3    18 ar  
     9     3    36 1   
    10     4     5 ar  
    11     4    37 1   
    12     5     6 ar  
    13     5    38 1   
    14     6     7 1   
    15     6    17 ar  
    16     7    33 1   
    17     7    39 1   
    18     8    19 1   
    19     8    21 ar  
    20     8    33 ar  
    21     9    10 1   
    22     9    23 1   
    23     9    24 1   
    24     9    40 1   
    25    10    25 1   
    26    10    41 1   
    27    10    57 1   
    28    11    26 ar  
    29    11    33 ar  
    30    12    29 2   
    31    12    30 1   
    32    12    42 1   
    33    13    14 ar  
    34    13    16 ar  
    35    13    30 1   
    36    14    31 ar  
    37    14    43 1   
    38    15    31 ar  
    39    15    32 ar  
    40    15    44 1   
    41    16    29 1   
    42    16    32 ar  
    43    17    18 ar  
    44    17    56 1   
    45    18    48 1   
    46    19    20 2   
    47    21    22 ar  
    48    21    49 1   
    49    22    23 1   
    50    22    26 ar  
    51    23    50 1   
    52    24    25 1   
    53    24    51 1   
    54    24    52 1   
    55    26    53 1   
    56    27    28 2   
    57    27    29 1   
    58    31    54 1   
    59    32    55 1   
    60    45    56 1   
    61    46    56 1   
    62    47    56 1   
@<TRIPOS>SUBSTRUCTURE
     1 YOR         1 TEMP              0 ****  ****    0 ROOT
