@<TRIPOS>MOLECULE
YOS
   63    67     1     0     0
SMALL
bcc


@<TRIPOS>ATOM
      1 C4          -1.1980     7.3640   -27.6450 cc         1 YOS      -0.170200
      2 C5           2.7570     5.8640   -26.8780 ca         1 YOS      -0.121000
      3 C6          -0.5420     3.3750   -28.3250 ca         1 YOS       0.412200
      4 C7          -0.7290     6.0220   -27.6970 ca         1 YOS      -0.171100
      5 C8           0.3710     5.3150   -27.2000 cp         1 YOS       0.052000
      6 C10          1.1870     6.6370   -25.2200 ca         1 YOS       0.147100
      7 C13         -1.6460     5.3030   -28.5010 ca         1 YOS       0.431800
      8 C15         -3.2050     8.5710   -28.6630 cf         1 YOS      -0.067200
      9 C17         -5.0730     9.6960   -29.8720 c6         1 YOS       0.210000
     10 C20         -7.4590    13.5220   -28.0410 c6         1 YOS      -0.071400
     11 C21         -5.4640    12.8320   -30.0650 c6         1 YOS      -0.084900
     12 C22         -6.3670    12.4930   -27.7640 c6         1 YOS      -0.084900
     13 C24         -7.0410    14.5610   -29.0820 c6         1 YOS      -0.040700
     14 C26         -0.4220     7.3660   -23.6350 c3         1 YOS       0.122700
     15 C1           2.2360     7.2360   -24.5260 ca         1 YOS      -0.199000
     16 C2           3.5380     7.1520   -25.0020 ca         1 YOS      -0.127000
     17 C3           0.4460     3.9680   -27.5350 ca         1 YOS      -0.274300
     18 C9           1.4480     5.9550   -26.4190 cp         1 YOS      -0.046000
     19 C11          3.7790     6.4620   -26.1690 ca         1 YOS       0.089900
     20 C12         -2.3470     7.4250   -28.3970 cd         1 YOS       0.004900
     21 C14         -4.1390     8.5610   -29.6210 c2         1 YOS      -0.151200
     22 C18         -3.0070     9.8020   -27.8220 c6         1 YOS      -0.031200
     23 C19         -6.5560    13.8600   -30.3500 c6         1 YOS      -0.071400
     24 C23         -3.6880    11.0100   -28.4480 c6         1 YOS       0.177800
     25 C25         -5.9530    11.7910   -29.0540 c6         1 YOS       0.186500
     26 C27         -8.1860    15.5230   -29.3700 c3         1 YOS      -0.203400
     27 N28         -1.5890     4.0220   -28.8180 nb         1 YOS      -0.682000
     28 N29         -2.6070     6.1740   -28.9070 na         1 YOS      -0.274100
     29 N30         -5.0510    10.6710   -28.8080 n3         1 YOS      -0.738600
     30 O31         -6.6850    17.1760   -30.2290 o          1 YOS      -0.846300
     31 O32         -8.8270    17.2780   -30.8330 o          1 YOS      -0.846300
     32 F34          5.0360     6.3740   -26.6400 f          1 YOS      -0.147900
     33 H1          -0.7340     8.1920   -27.1350 ha         1 YOS       0.159000
     34 H2           2.9710     5.3420   -27.8020 ha         1 YOS       0.155000
     35 H3          -0.4690     2.3200   -28.5660 h4         1 YOS       0.013100
     36 H4          -4.8310    10.1240   -30.8630 h1         1 YOS       0.042200
     37 H5          -6.0890     9.2970   -29.9680 h1         1 YOS       0.042200
     38 H6          -7.7430    14.0240   -27.1110 hc         1 YOS       0.039450
     39 H7          -8.3590    13.0040   -28.3950 hc         1 YOS       0.039450
     40 H8          -5.1530    12.3520   -30.9980 hc         1 YOS       0.030950
     41 H9          -4.5810    13.3440   -29.6680 hc         1 YOS       0.030950
     42 H10         -6.7150    11.7520   -27.0400 hc         1 YOS       0.030950
     43 H11         -5.5040    12.9990   -27.3160 hc         1 YOS       0.030950
     44 H12         -6.2000    15.1310   -28.6680 hc         1 YOS       0.059700
     45 H13         -1.4960     7.2590   -23.5030 h1         1 YOS       0.042367
     46 H14          0.0810     6.9670   -22.7510 h1         1 YOS       0.042367
     47 H15         -0.1830     8.4280   -23.7290 h1         1 YOS       0.042367
     48 H16          2.0610     7.7690   -23.6020 ha         1 YOS       0.139000
     49 H17          4.3480     7.6210   -24.4580 ha         1 YOS       0.146000
     50 H18          1.2680     3.3620   -27.1790 ha         1 YOS       0.136000
     51 H19         -4.2640     7.7110   -30.2840 ha         1 YOS       0.112000
     52 H20         -3.3960     9.6290   -26.8140 hc         1 YOS       0.051200
     53 H21         -1.9410    10.0140   -27.7070 hc         1 YOS       0.051200
     54 H22         -6.1950    14.5990   -31.0670 hc         1 YOS       0.039450
     55 H23         -7.4080    13.3540   -30.8230 hc         1 YOS       0.039450
     56 H24         -3.0970    11.3470   -29.3150 h1         1 YOS       0.038700
     57 H25         -3.6920    11.8330   -27.7330 h1         1 YOS       0.038700
     58 H26         -6.8640    11.3380   -29.4680 h1         1 YOS       0.048700
     59 H27         -8.5800    15.8970   -28.4150 hc         1 YOS       0.017700
     60 H28         -9.0140    14.9690   -29.8250 hc         1 YOS       0.017700
     61 H29         -3.4170     5.9110   -29.4450 hn         1 YOS       0.309700
     62 C16         -7.8630    16.7610   -30.2320 c          1 YOS       0.926600
     63 O33         -0.0900     6.6440   -24.8030 os         1 YOS      -0.298900
@<TRIPOS>BOND
     1     1     4 1   
     2     1    20 2   
     3     1    33 1   
     4     2    18 ar  
     5     2    19 ar  
     6     2    34 1   
     7     3    17 ar  
     8     3    27 ar  
     9     3    35 1   
    10     4     5 ar  
    11     4     7 ar  
    12     5    17 ar  
    13     5    18 1   
    14     6    15 ar  
    15     6    18 ar  
    16     6    63 1   
    17     7    27 ar  
    18     7    28 1   
    19     8    20 1   
    20     8    21 2   
    21     8    22 1   
    22     9    21 1   
    23     9    29 1   
    24     9    36 1   
    25     9    37 1   
    26    10    12 1   
    27    10    13 1   
    28    10    38 1   
    29    10    39 1   
    30    11    23 1   
    31    11    25 1   
    32    11    40 1   
    33    11    41 1   
    34    12    25 1   
    35    12    42 1   
    36    12    43 1   
    37    13    23 1   
    38    13    26 1   
    39    13    44 1   
    40    14    45 1   
    41    14    46 1   
    42    14    47 1   
    43    14    63 1   
    44    15    16 ar  
    45    15    48 1   
    46    16    19 ar  
    47    16    49 1   
    48    17    50 1   
    49    19    32 1   
    50    20    28 1   
    51    21    51 1   
    52    22    24 1   
    53    22    52 1   
    54    22    53 1   
    55    23    54 1   
    56    23    55 1   
    57    24    29 1   
    58    24    56 1   
    59    24    57 1   
    60    25    29 1   
    61    25    58 1   
    62    26    59 1   
    63    26    60 1   
    64    26    62 1   
    65    28    61 1   
    66    30    62 1   
    67    31    62 1   
@<TRIPOS>SUBSTRUCTURE
     1 YOS         1 TEMP              0 ****  ****    0 ROOT
