@<TRIPOS>MOLECULE
YOS
   63    67     1     0     0
SMALL
No Charge or Current Charge


@<TRIPOS>ATOM
      1 C4          -1.2030     7.2050   -27.7900 cc         1 YOS      -0.220200
      2 C5           2.8140     6.1460   -26.7920 ca         1 YOS      -0.103000
      3 C6          -0.1470     3.3010   -28.5640 ca         1 YOS       0.346900
      4 C7          -0.6550     5.8850   -27.8960 ca         1 YOS      -0.105800
      5 C8           0.5070     5.3100   -27.3360 cp         1 YOS       0.052000
      6 C10          1.0130     6.6810   -25.2400 ca         1 YOS       0.147100
      7 C13         -1.4880     5.1680   -28.7270 ca         1 YOS       0.366500
      8 C15         -3.2580     8.4060   -28.7150 cf         1 YOS      -0.067200
      9 C17         -5.3480     9.5060   -29.6380 c6         1 YOS       0.210000
     10 C20         -7.1560    13.8110   -27.7940 c6         1 YOS      -0.071400
     11 C21         -5.7480    12.5990   -30.1300 c6         1 YOS      -0.084900
     12 C22         -6.1060    12.6880   -27.6080 c6         1 YOS      -0.084900
     13 C24         -6.8720    14.6560   -29.0680 c6         1 YOS      -0.040700
     14 C26         -0.8830     7.1660   -23.7290 c3         1 YOS       0.145900
     15 C1           1.9290     7.3870   -24.4270 ca         1 YOS      -0.181000
     16 C2           3.2820     7.4700   -24.8030 ca         1 YOS      -0.109000
     17 C3           0.7520     3.9690   -27.7100 ca         1 YOS      -0.191000
     18 C9           1.4430     6.0580   -26.4450 cp         1 YOS      -0.046000
     19 C11          3.7190     6.8460   -25.9810 ca         1 YOS       0.125000
     20 C12         -2.3610     7.2520   -28.5500 cd         1 YOS       0.004900
     21 C14         -4.4110     8.3280   -29.4270 c2         1 YOS      -0.201200
     22 C18         -2.8500     9.7360   -28.0500 c6         1 YOS      -0.031200
     23 C19         -6.7880    13.7320   -30.3180 c6         1 YOS      -0.071400
     24 C23         -3.6860    10.9390   -28.5550 c6         1 YOS       0.177800
     25 C25         -6.0540    11.7550   -28.8530 c6         1 YOS       0.186500
     26 C27         -7.9280    15.7980   -29.2280 c3         1 YOS      -0.203400
     27 N28         -1.2590     3.8860   -29.0710 nb         1 YOS      -0.682000
     28 N29         -2.5350     5.9730   -29.1280 na         1 YOS      -0.324400
     29 N30         -5.1330    10.5900   -28.6420 n3         1 YOS      -0.738600
     30 O31         -6.8110    17.7120   -30.0830 o          1 YOS      -0.741000
     31 O32         -8.0350    16.6040   -31.4650 o          1 YOS      -0.741000
     32 F34          5.0200     6.9220   -26.3370 f          1 YOS      -0.183000
     33 H1          -0.7960     8.0260   -27.2060 ha         1 YOS       0.209000
     34 H2           3.1720     5.6740   -27.7030 ha         1 YOS       0.137000
     35 H3           0.0300     2.2650   -28.8520 h4         1 YOS       0.013100
     36 H4          -5.1900     9.8780   -30.6600 h1         1 YOS       0.042200
     37 H5          -6.3870     9.1470   -29.5870 h1         1 YOS       0.042200
     38 H6          -7.1560    14.4570   -26.9060 hc         1 YOS       0.039450
     39 H7          -8.1610    13.3680   -27.8560 hc         1 YOS       0.039450
     40 H8          -5.7540    11.9660   -31.0260 hc         1 YOS       0.030950
     41 H9          -4.7450    13.0410   -30.0650 hc         1 YOS       0.030950
     42 H10         -6.3530    12.1010   -26.7140 hc         1 YOS       0.030950
     43 H11         -5.1280    13.1490   -27.4220 hc         1 YOS       0.030950
     44 H12         -5.8980    15.1510   -28.9380 hc         1 YOS       0.059700
     45 H13         -1.9530     6.9370   -23.6570 h1         1 YOS       0.042367
     46 H14         -0.3950     6.8030   -22.8160 h1         1 YOS       0.042367
     47 H15         -0.7710     8.2570   -23.7800 h1         1 YOS       0.042367
     48 H16          1.6150     7.8670   -23.5050 ha         1 YOS       0.121000
     49 H17          3.9920     8.0100   -24.1810 ha         1 YOS       0.128000
     50 H18          1.6270     3.4450   -27.3370 ha         1 YOS       0.118000
     51 H19         -4.7130     7.3960   -29.9010 ha         1 YOS       0.162000
     52 H20         -2.9780     9.6400   -26.9630 hc         1 YOS       0.051200
     53 H21         -1.7870     9.9430   -28.2280 hc         1 YOS       0.051200
     54 H22         -6.5170    14.3170   -31.2060 hc         1 YOS       0.039450
     55 H23         -7.7740    13.2930   -30.5240 hc         1 YOS       0.039450
     56 H24         -3.3080    11.2360   -29.5450 h1         1 YOS       0.038700
     57 H25         -3.5090    11.7840   -27.8760 h1         1 YOS       0.038700
     58 H26         -7.0720    11.3550   -28.9740 h1         1 YOS       0.048700
     59 H27         -7.9260    16.3360   -28.2710 hc         1 YOS       0.017700
     60 H28         -8.8900    15.3170   -29.4440 hc         1 YOS       0.017700
     61 H29         -3.2870     5.6830   -29.7350 hn         1 YOS       0.360000
     62 C16         -7.5680    16.7900   -30.3510 c          1 YOS       0.716000
     63 O33         -0.3180     6.5400   -24.8940 os         1 YOS      -0.322100
@<TRIPOS>BOND
     1     1     4 1   
     2     1    20 2   
     3     1    33 1   
     4     2    18 ar  
     5     2    19 ar  
     6     2    34 1   
     7     3    17 ar  
     8     3    27 ar  
     9     3    35 1   
    10     4     5 ar  
    11     4     7 ar  
    12     5    17 ar  
    13     5    18 1   
    14     6    15 ar  
    15     6    18 ar  
    16     6    63 1   
    17     7    27 ar  
    18     7    28 1   
    19     8    20 1   
    20     8    21 2   
    21     8    22 1   
    22     9    21 1   
    23     9    29 1   
    24     9    36 1   
    25     9    37 1   
    26    10    12 1   
    27    10    13 1   
    28    10    38 1   
    29    10    39 1   
    30    11    23 1   
    31    11    25 1   
    32    11    40 1   
    33    11    41 1   
    34    12    25 1   
    35    12    42 1   
    36    12    43 1   
    37    13    23 1   
    38    13    26 1   
    39    13    44 1   
    40    14    45 1   
    41    14    46 1   
    42    14    47 1   
    43    14    63 1   
    44    15    16 ar  
    45    15    48 1   
    46    16    19 ar  
    47    16    49 1   
    48    17    50 1   
    49    19    32 1   
    50    20    28 1   
    51    21    51 1   
    52    22    24 1   
    53    22    52 1   
    54    22    53 1   
    55    23    54 1   
    56    23    55 1   
    57    24    29 1   
    58    24    56 1   
    59    24    57 1   
    60    25    29 1   
    61    25    58 1   
    62    26    59 1   
    63    26    60 1   
    64    26    62 1   
    65    28    61 1   
    66    30    62 1   
    67    31    62 1   
@<TRIPOS>SUBSTRUCTURE
     1 YOS         1 TEMP              0 ****  ****    0 ROOT
