@<TRIPOS>MOLECULE
YOT
   44    48     1     0     0
SMALL
No Charge or Current Charge


@<TRIPOS>ATOM
      1 C10         64.2420    23.3870    23.2730 cc         1 YOT       0.614800
      2 C13         63.6760    24.1770    25.2510 ca         1 YOT       0.100100
      3 C15         65.3850    22.4680    25.4080 ca         1 YOT      -0.035000
      4 C17         64.5150    23.5690    27.4250 ca         1 YOT      -0.060000
      5 C20         63.5200    22.8150    18.8390 ca         1 YOT       0.001000
      6 C21         64.7180    22.6410    18.1330 ca         1 YOT      -0.194600
      7 C22         64.9380    22.5800    16.6790 c          1 YOT       0.597600
      8 C24         68.4350    22.5790    15.0890 c6         1 YOT      -0.081400
      9 C02         66.6960    20.7460    14.5680 c          1 YOT       0.550000
     10 C03         66.9370    22.1720    15.1540 c6         1 YOT       0.040700
     11 C05         67.0780    22.3010    17.7810 c5         1 YOT       0.143300
     12 C06         65.9330    22.4800    18.7710 ca         1 YOT      -0.043300
     13 C07         66.0000    22.4930    20.1720 ca         1 YOT      -0.169000
     14 C08         64.8180    22.6800    20.9150 ca         1 YOT       0.342000
     15 C14         64.5090    23.2740    24.6650 ca         1 YOT      -0.275900
     16 C16         65.3790    22.6280    26.8110 ca         1 YOT      -0.144000
     17 C18         63.6470    24.3580    26.6380 ca         1 YOT      -0.120000
     18 C19         63.5820    22.8300    20.2470 ca         1 YOT      -0.159000
     19 C25         69.0310    22.2940    13.6900 c6         1 YOT      -0.165400
     20 C27         68.7370    20.8780    13.1840 c          1 YOT       0.578000
     21 N04         66.3180    22.4100    16.4930 n          1 YOT      -0.409800
     22 N09         64.8950    22.6790    22.3050 nu         1 YOT      -0.889200
     23 N11         63.3140    24.3030    23.0160 nd         1 YOT      -0.361700
     24 N26         67.6260    20.2630    13.6860 ns         1 YOT      -0.484500
     25 O12         62.9180    24.8370    24.3180 os         1 YOT      -0.107100
     26 O28         69.4830    20.2960    12.4150 o          1 YOT      -0.512000
     27 H1          66.0440    21.7450    24.9310 ha         1 YOT       0.116000
     28 H2          64.5190    23.6830    28.5070 ha         1 YOT       0.121000
     29 H3          62.5720    22.9300    18.3170 ha         1 YOT       0.139000
     30 H4          69.0100    22.0130    15.8350 hc         1 YOT       0.063200
     31 H5          68.5510    23.6430    15.3410 hc         1 YOT       0.063200
     32 H6          66.4140    22.8240    14.4400 h1         1 YOT       0.108700
     33 H7          67.5600    21.3210    17.8930 h1         1 YOT       0.063700
     34 H8          67.8290    23.0950    17.8870 h1         1 YOT       0.063700
     35 H9          66.9560    22.3670    20.6730 ha         1 YOT       0.116000
     36 H10         66.0420    22.0230    27.4250 ha         1 YOT       0.121000
     37 H11         62.9770    25.0840    27.0930 ha         1 YOT       0.141000
     38 H12         62.6650    22.9460    20.8160 ha         1 YOT       0.157000
     39 H13         70.1070    22.5010    13.6230 hc         1 YOT       0.083700
     40 H14         68.5340    22.9710    12.9810 hc         1 YOT       0.083700
     41 H15         65.7270    22.2330    22.6790 hn         1 YOT       0.502000
     42 H16         67.4530    19.3320    13.3380 hn         1 YOT       0.330500
     43 O23         64.0910    22.6760    15.8020 o          1 YOT      -0.532000
     44 O01         65.7120    20.0760    14.8400 o          1 YOT      -0.499000
@<TRIPOS>BOND
     1     1    15 1   
     2     1    22 1   
     3     1    23 2   
     4     2    15 ar  
     5     2    17 ar  
     6     2    25 1   
     7     3    15 ar  
     8     3    16 ar  
     9     3    27 1   
    10     4    16 ar  
    11     4    17 ar  
    12     4    28 1   
    13     5     6 ar  
    14     5    18 ar  
    15     5    29 1   
    16     6     7 1   
    17     6    12 ar  
    18     7    21 1   
    19     7    43 2   
    20     8    10 1   
    21     8    19 1   
    22     8    30 1   
    23     8    31 1   
    24     9    10 1   
    25     9    24 1   
    26     9    44 2   
    27    10    21 1   
    28    10    32 1   
    29    11    12 1   
    30    11    21 1   
    31    11    33 1   
    32    11    34 1   
    33    12    13 ar  
    34    13    14 ar  
    35    13    35 1   
    36    14    18 ar  
    37    14    22 1   
    38    16    36 1   
    39    17    37 1   
    40    18    38 1   
    41    19    20 1   
    42    19    39 1   
    43    19    40 1   
    44    20    24 1   
    45    20    26 2   
    46    22    41 1   
    47    23    25 1   
    48    24    42 1   
@<TRIPOS>SUBSTRUCTURE
     1 YOT         1 TEMP              0 ****  ****    0 ROOT
