@<TRIPOS>MOLECULE
YOT
   44    48     1     0     0
SMALL
abcg2


@<TRIPOS>ATOM
      1 C10         64.3020    23.3220    23.2230 cc         1 YOT       0.614800
      2 C13         63.3580    23.5990    25.1990 ca         1 YOT       0.100100
      3 C15         65.6340    22.8320    25.4400 ca         1 YOT      -0.035000
      4 C17         64.2180    23.2610    27.3600 ca         1 YOT      -0.060000
      5 C20         63.8220    23.4060    18.8430 ca         1 YOT       0.001000
      6 C21         64.9300    23.0090    18.1170 ca         1 YOT      -0.194600
      7 C22         65.1140    22.8820    16.6650 c          1 YOT       0.597600
      8 C24         68.3520    22.5290    14.9460 c6         1 YOT      -0.081400
      9 C02         66.7750    20.5900    15.0150 c          1 YOT       0.550000
     10 C03         66.9160    22.0940    15.2110 c6         1 YOT       0.040700
     11 C05         67.1180    22.2450    17.7300 c5         1 YOT       0.143300
     12 C06         66.1000    22.6310    18.7580 ca         1 YOT      -0.043300
     13 C07         66.1950    22.6450    20.1300 ca         1 YOT      -0.169000
     14 C08         65.0760    23.0430    20.8790 ca         1 YOT       0.342000
     15 C14         64.5610    23.2090    24.6350 ca         1 YOT      -0.275900
     16 C16         65.4460    22.8630    26.8080 ca         1 YOT      -0.144000
     17 C18         63.1470    23.6380    26.5710 ca         1 YOT      -0.120000
     18 C19         63.8930    23.4240    20.2260 ca         1 YOT      -0.159000
     19 C25         68.7310    22.1390    13.5280 c6         1 YOT      -0.165400
     20 C27         68.4800    20.6880    13.2200 c          1 YOT       0.578000
     21 N04         66.4080    22.4850    16.4880 n          1 YOT      -0.409800
     22 N09         65.2120    23.0280    22.2560 nu         1 YOT      -0.889200
     23 N11         63.0870    23.7350    23.0060 nd         1 YOT      -0.361700
     24 N26         67.5430    20.0490    14.0100 ns         1 YOT      -0.484500
     25 O12         62.4820    23.9130    24.2370 os         1 YOT      -0.107100
     26 O28         69.0400    20.0870    12.3340 o          1 YOT      -0.512000
     27 H1          66.5830    22.5250    25.0180 ha         1 YOT       0.116000
     28 H2          64.1060    23.2730    28.4360 ha         1 YOT       0.121000
     29 H3          62.9060    23.7010    18.3470 ha         1 YOT       0.139000
     30 H4          69.0360    22.0650    15.6610 hc         1 YOT       0.063200
     31 H5          68.4350    23.6090    15.0690 hc         1 YOT       0.063200
     32 H6          66.2760    22.5610    14.4530 h1         1 YOT       0.108700
     33 H7          67.4160    21.1970    17.8300 h1         1 YOT       0.063700
     34 H8          68.0220    22.8550    17.8000 h1         1 YOT       0.063700
     35 H9          67.1090    22.3460    20.6310 ha         1 YOT       0.116000
     36 H10         66.2540    22.5780    27.4670 ha         1 YOT       0.121000
     37 H11         62.2020    23.9450    26.9990 ha         1 YOT       0.141000
     38 H12         63.0320    23.7340    20.7960 ha         1 YOT       0.157000
     39 H13         69.7800    22.3490    13.3230 hc         1 YOT       0.083700
     40 H14         68.1480    22.7260    12.8110 hc         1 YOT       0.083700
     41 H15         66.1150    22.7360    22.5980 hn         1 YOT       0.502000
     42 H16         67.4000    19.0620    13.8220 hn         1 YOT       0.330500
     43 O23         64.3030    23.0880    15.7800 o          1 YOT      -0.532000
     44 O01         66.0280    19.9050    15.6700 o          1 YOT      -0.499000
@<TRIPOS>BOND
     1     1    15 1   
     2     1    22 1   
     3     1    23 2   
     4     2    15 ar  
     5     2    17 ar  
     6     2    25 1   
     7     3    15 ar  
     8     3    16 ar  
     9     3    27 1   
    10     4    16 ar  
    11     4    17 ar  
    12     4    28 1   
    13     5     6 ar  
    14     5    18 ar  
    15     5    29 1   
    16     6     7 1   
    17     6    12 ar  
    18     7    21 1   
    19     7    43 2   
    20     8    10 1   
    21     8    19 1   
    22     8    30 1   
    23     8    31 1   
    24     9    10 1   
    25     9    24 1   
    26     9    44 2   
    27    10    21 1   
    28    10    32 1   
    29    11    12 1   
    30    11    21 1   
    31    11    33 1   
    32    11    34 1   
    33    12    13 ar  
    34    13    14 ar  
    35    13    35 1   
    36    14    18 ar  
    37    14    22 1   
    38    16    36 1   
    39    17    37 1   
    40    18    38 1   
    41    19    20 1   
    42    19    39 1   
    43    19    40 1   
    44    20    24 1   
    45    20    26 2   
    46    22    41 1   
    47    23    25 1   
    48    24    42 1   
@<TRIPOS>SUBSTRUCTURE
     1 YOT         1 TEMP              0 ****  ****    0 ROOT
