@<TRIPOS>MOLECULE
YOV
   40    41     1     0     0
SMALL
bcc


@<TRIPOS>ATOM
      1 C01          3.9060    -3.6640    -3.7000 c3         1 YOV       0.150100
      2 C03          2.4350    -1.8300    -4.0820 c3         1 YOV       0.150100
      3 C04          4.7840    -1.4980    -4.2800 c3         1 YOV       0.169800
      4 C05          6.1760    -1.6960    -3.6870 c3         1 YOV      -0.029100
      5 C06          6.2630    -1.3800    -2.2190 ca         1 YOV      -0.064300
      6 C07          6.5980    -2.3570    -1.2880 ca         1 YOV      -0.100000
      7 C08          6.7180    -2.0630     0.0630 ca         1 YOV      -0.151000
      8 C09          6.4650    -0.7730     0.5190 ca         1 YOV       0.137600
      9 C11          6.2450    -1.1490     2.9490 cc         1 YOV       0.146400
     10 C12          5.3090    -2.2310     2.8450 cc         1 YOV       0.319500
     11 C16          6.2750    -1.6490     5.3590 c          1 YOV       0.706700
     12 C18          6.6880    -0.8800     4.2210 cd         1 YOV      -0.214800
     13 C20          6.1210     0.2150    -0.4010 ca         1 YOV      -0.151000
     14 C21          6.0350    -0.0870    -1.7500 ca         1 YOV      -0.100000
     15 N02          3.7380    -2.2310    -3.5970 n3         1 YOV      -0.709600
     16 N10          6.6120    -0.4200     1.8710 nu         1 YOV      -0.639400
     17 N13          4.9220    -2.9330     3.8520 nd         1 YOV      -0.400300
     18 N14          5.3880    -2.6680     5.0580 n          1 YOV      -0.200800
     19 O17          6.6520    -1.4660     6.5090 o          1 YOV      -0.607500
     20 CL19         7.7930     0.4030     4.5240 cl         1 YOV      -0.081400
     21 H1           3.0880    -4.1690    -3.1840 h1         1 YOV       0.030200
     22 H2           3.9180    -4.0230    -4.7410 h1         1 YOV       0.030200
     23 H3           4.8330    -3.9860    -3.2270 h1         1 YOV       0.030200
     24 H4           1.6510    -2.3390    -3.5180 h1         1 YOV       0.030200
     25 H5           2.2990    -0.7560    -3.9480 h1         1 YOV       0.030200
     26 H6           2.2780    -2.0570    -5.1490 h1         1 YOV       0.030200
     27 H7           4.8270    -1.7520    -5.3540 h1         1 YOV       0.030700
     28 H8           4.5320    -0.4350    -4.2300 h1         1 YOV       0.030700
     29 H9           6.5300    -2.7140    -3.8640 hc         1 YOV       0.048200
     30 H10          6.8570    -1.0460    -4.2420 hc         1 YOV       0.048200
     31 H11          6.8000    -3.3670    -1.6230 ha         1 YOV       0.132500
     32 H12          7.0320    -2.8380     0.7510 ha         1 YOV       0.139500
     33 H13          4.8670    -2.4940     1.8940 h4         1 YOV       0.058800
     34 H14          4.2020    -4.2190     5.7150 h1         1 YOV       0.057367
     35 H15          5.7400    -4.0710     6.5840 h1         1 YOV       0.057367
     36 H16          4.4270    -2.9280     6.9090 h1         1 YOV       0.057367
     37 H17          5.9290     1.2240    -0.0570 ha         1 YOV       0.139500
     38 H18          5.7800     0.7020    -2.4480 ha         1 YOV       0.132500
     39 H20          7.0820     0.4540     2.0540 hn         1 YOV       0.456800
     40 C15          4.9150    -3.5190     6.1360 c3         1 YOV       0.099300
@<TRIPOS>BOND
     1     1    15 1   
     2     1    21 1   
     3     1    22 1   
     4     1    23 1   
     5     2    15 1   
     6     2    24 1   
     7     2    25 1   
     8     2    26 1   
     9     3     4 1   
    10     3    15 1   
    11     3    27 1   
    12     3    28 1   
    13     4     5 1   
    14     4    29 1   
    15     4    30 1   
    16     5     6 ar  
    17     5    14 ar  
    18     6     7 ar  
    19     6    31 1   
    20     7     8 ar  
    21     7    32 1   
    22     8    13 ar  
    23     8    16 1   
    24     9    10 1   
    25     9    12 2   
    26     9    16 1   
    27    10    17 2   
    28    10    33 1   
    29    11    12 1   
    30    11    18 1   
    31    11    19 2   
    32    12    20 1   
    33    13    14 ar  
    34    13    37 1   
    35    14    38 1   
    36    16    39 1   
    37    17    18 1   
    38    18    40 1   
    39    34    40 1   
    40    35    40 1   
    41    36    40 1   
@<TRIPOS>SUBSTRUCTURE
     1 YOV         1 TEMP              0 ****  ****    0 ROOT
