@<TRIPOS>MOLECULE
YOV
   40    41     1     0     0
SMALL
No Charge or Current Charge


@<TRIPOS>ATOM
      1 C01          3.9150    -3.7190    -3.8240 c3         1 YOV       0.150100
      2 C03          2.3550    -1.8490    -4.1240 c3         1 YOV       0.150100
      3 C04          4.7730    -1.4380    -4.3300 c3         1 YOV       0.169800
      4 C05          6.2020    -1.6320    -3.7630 c3         1 YOV      -0.029100
      5 C06          6.3060    -1.3430    -2.2680 ca         1 YOV      -0.064300
      6 C07          6.5860    -2.3790    -1.3570 ca         1 YOV      -0.082000
      7 C08          6.6810    -2.1080     0.0200 ca         1 YOV      -0.133000
      8 C09          6.4920    -0.8000     0.5010 ca         1 YOV       0.276000
      9 C11          6.2290    -1.2010     3.0170 cc         1 YOV       0.146400
     10 C12          5.3040    -2.3190     2.9350 cc         1 YOV       0.319500
     11 C16          6.2880    -1.6120     5.4650 c          1 YOV       0.564200
     12 C18          6.7040    -0.8500     4.2600 cd         1 YOV      -0.139200
     13 C20          6.2330     0.2370    -0.4080 ca         1 YOV      -0.133000
     14 C21          6.1350    -0.0310    -1.7850 ca         1 YOV      -0.082000
     15 N02          3.7090    -2.2570    -3.6900 n3         1 YOV      -0.709600
     16 N10          6.5950    -0.5090     1.8640 nu         1 YOV      -0.833000
     17 N13          4.8660    -3.0680     3.9490 nd         1 YOV      -0.400300
     18 N14          5.3880    -2.6780     5.1870 n          1 YOV      -0.133800
     19 O17          6.6790    -1.3520     6.5980 o          1 YOV      -0.532000
     20 Cl19         7.8080     0.4840     4.5090 cl         1 YOV      -0.157000
     21 H1           3.1050    -4.2700    -3.3280 h1         1 YOV       0.030200
     22 H2           3.9350    -4.0160    -4.8810 h1         1 YOV       0.030200
     23 H3           4.8580    -4.0330    -3.3580 h1         1 YOV       0.030200
     24 H4           1.5860    -2.4080    -3.5760 h1         1 YOV       0.030200
     25 H5           2.1920    -0.7790    -3.9340 h1         1 YOV       0.030200
     26 H6           2.2160    -2.0330    -5.1980 h1         1 YOV       0.030200
     27 H7           4.8010    -1.6480    -5.4080 h1         1 YOV       0.030700
     28 H8           4.5210    -0.3740    -4.2250 h1         1 YOV       0.030700
     29 H9           6.5520    -2.6450    -3.9900 hc         1 YOV       0.048200
     30 H10          6.8770    -0.9610    -4.3080 hc         1 YOV       0.048200
     31 H11          6.7320    -3.3960    -1.7130 ha         1 YOV       0.114500
     32 H12          6.9170    -2.9140     0.7070 ha         1 YOV       0.121500
     33 H13          4.8820    -2.6220     1.9880 h4         1 YOV       0.058800
     34 H14          4.2320    -4.2880     5.9730 h1         1 YOV       0.057367
     35 H15          5.7700    -3.9710     6.8200 h1         1 YOV       0.057367
     36 H16          4.3820    -2.8660     7.0410 h1         1 YOV       0.057367
     37 H17          6.0960     1.2540    -0.0490 ha         1 YOV       0.121500
     38 H18          5.9270     0.7830    -2.4770 ha         1 YOV       0.114500
     39 H20          6.9660     0.4240     2.0630 hn         1 YOV       0.512000
     40 C15          4.9130    -3.5010     6.3210 c3         1 YOV       0.099300
@<TRIPOS>BOND
     1     1    15 1   
     2     1    21 1   
     3     1    22 1   
     4     1    23 1   
     5     2    15 1   
     6     2    24 1   
     7     2    25 1   
     8     2    26 1   
     9     3     4 1   
    10     3    15 1   
    11     3    27 1   
    12     3    28 1   
    13     4     5 1   
    14     4    29 1   
    15     4    30 1   
    16     5     6 ar  
    17     5    14 ar  
    18     6     7 ar  
    19     6    31 1   
    20     7     8 ar  
    21     7    32 1   
    22     8    13 ar  
    23     8    16 1   
    24     9    10 1   
    25     9    12 2   
    26     9    16 1   
    27    10    17 2   
    28    10    33 1   
    29    11    12 1   
    30    11    18 1   
    31    11    19 2   
    32    12    20 1   
    33    13    14 ar  
    34    13    37 1   
    35    14    38 1   
    36    16    39 1   
    37    17    18 1   
    38    18    40 1   
    39    34    40 1   
    40    35    40 1   
    41    36    40 1   
@<TRIPOS>SUBSTRUCTURE
     1 YOV         1 TEMP              0 ****  ****    0 ROOT
