@<TRIPOS>MOLECULE
YOY
   94    98     1     0     0
SMALL
No Charge or Current Charge


@<TRIPOS>ATOM
      1 N          -20.7630    11.9470     1.1140 nv         1 YOY      -1.081900
      2 C          -20.3270    11.5230    -0.1010 ca         1 YOY       0.438900
      3 O          -17.1160    12.7060    -4.4170 os         1 YOY      -0.459000
      4 C1         -19.9110     9.7720    -1.5150 ca         1 YOY       0.159900
      5 C10        -14.7020    15.7190   -12.2480 c5         1 YOY       0.361300
      6 C11        -14.7980    14.8670   -14.3570 c5         1 YOY       0.391300
      7 C12        -15.0220    15.1670   -15.8580 c3         1 YOY      -0.078400
      8 C13        -14.5490    16.5650   -16.3320 c3         1 YOY      -0.078400
      9 C14        -14.7860    16.8060   -17.8390 c3         1 YOY      -0.068400
     10 C15        -13.3460    15.0270   -12.6090 c5         1 YOY       0.093300
     11 C16        -12.2910    16.1340   -12.2940 c5         1 YOY       0.122300
     12 C17        -17.5810    14.0930    -6.2810 c5         1 YOY       0.165300
     13 C18        -18.8580    14.0940    -5.3930 c5         1 YOY       0.072300
     14 C19        -14.4450    18.2470   -18.2820 c3         1 YOY      -0.082400
     15 C2         -19.4400    11.8740    -2.2910 ca         1 YOY       0.125500
     16 C20        -14.6740    18.4820   -19.7940 c3         1 YOY      -0.071400
     17 C21        -14.5380    19.9570   -20.2420 c3         1 YOY      -0.072400
     18 C22        -13.1270    20.5660   -20.0410 c3         1 YOY      -0.074400
     19 C23        -12.9510    21.9790   -20.6530 c3         1 YOY      -0.069400
     20 C24        -13.9040    23.0760   -20.1110 c3         1 YOY      -0.072400
     21 C25        -13.7650    23.3520   -18.5930 c3         1 YOY      -0.077400
     22 C26        -14.6220    24.5360   -18.0820 c3         1 YOY      -0.073400
     23 C27        -16.1460    24.3000   -18.1660 c3         1 YOY      -0.088100
     24 C3         -19.2660    14.0980    -2.2950 cc         1 YOY       0.431700
     25 C4         -19.8660    12.4080    -1.1000 ca         1 YOY      -0.097600
     26 C5         -18.5570    12.8790    -4.4330 c5         1 YOY       0.270300
     27 C6         -16.4950    13.7570    -5.2100 c5         1 YOY       0.122300
     28 C7         -16.1030    14.9420    -4.2690 c3         1 YOY       0.225600
     29 C8         -12.9870    16.1880    -9.7490 c3         1 YOY       0.224600
     30 C9         -13.0170    16.8980   -11.1450 c5         1 YOY       0.123300
     31 N1         -20.3490    10.1960    -0.3030 nb         1 YOY      -0.321000
     32 N2         -19.4540    10.5460    -2.5290 nb         1 YOY      -0.192000
     33 N3         -19.0570    12.9410    -3.0570 na         1 YOY      -0.272300
     34 N4         -19.7630    13.8030    -1.0770 nd         1 YOY      -0.590100
     35 O1         -15.5540    16.0540    -4.9980 os         1 YOY      -0.591400
     36 O13        -13.3970    14.8410   -14.0430 os         1 YOY      -0.489000
     37 O14        -11.0040    15.6020   -11.9470 oh         1 YOY      -0.717000
     38 O15        -17.7060    13.0820    -7.2930 oh         1 YOY      -0.683000
     39 O16        -20.0480    13.9250    -6.1920 oh         1 YOY      -0.705000
     40 O2         -13.4390    17.2680    -5.8230 o          1 YOY      -0.839000
     41 O3         -13.2750    14.9230    -5.1510 o          1 YOY      -0.839000
     42 O4         -14.6630    15.4260    -7.1770 os         1 YOY      -0.712800
     43 O5         -15.9460    15.8430    -9.2850 o          1 YOY      -0.858500
     44 O6         -15.9120    17.6350    -7.6280 o          1 YOY      -0.858500
     45 O7         -13.7010    16.9810    -8.7890 os         1 YOY      -0.578400
     46 O8         -14.3590    17.0040   -11.6820 os         1 YOY      -0.395000
     47 O9         -15.3090    15.9280   -13.5360 os         1 YOY      -0.447000
     48 P          -14.1480    15.9550    -5.7850 p5         1 YOY       1.462800
     49 P1         -15.1360    16.5070    -8.2230 p5         1 YOY       1.471800
     50 H1         -20.7930    11.2680     1.8710 hn         1 YOY       0.497000
     51 H2         -20.5480    12.9090     1.3690 hn         1 YOY       0.497000
     52 H3         -19.9270     8.6970    -1.6910 h5         1 YOY       0.035100
     53 H4         -15.3240    15.1060   -11.5810 h2         1 YOY       0.137700
     54 H5         -15.2630    13.9120   -14.0770 h2         1 YOY       0.027700
     55 H6         -16.0920    15.0650   -16.0790 hc         1 YOY       0.033700
     56 H7         -14.5160    14.3980   -16.4540 hc         1 YOY       0.033700
     57 H8         -13.4800    16.6820   -16.1110 hc         1 YOY       0.071700
     58 H9         -15.0780    17.3370   -15.7600 hc         1 YOY       0.071700
     59 H10        -15.8380    16.6010   -18.0750 hc         1 YOY       0.019700
     60 H11        -14.1830    16.0950   -18.4170 hc         1 YOY       0.019700
     61 H12        -13.1950    14.0770   -12.0790 h1         1 YOY       0.072700
     62 H13        -12.1880    16.8090   -13.1560 h1         1 YOY       0.038700
     63 H14        -17.4110    15.0820    -6.7330 h1         1 YOY       0.117700
     64 H15        -18.9160    15.0400    -4.8380 h1         1 YOY       0.045700
     65 H16        -15.0620    18.9520   -17.7110 hc         1 YOY       0.051700
     66 H17        -13.3980    18.4590   -18.0330 hc         1 YOY       0.051700
     67 H18        -13.9730    17.8620   -20.3680 hc         1 YOY       0.025200
     68 H19        -15.6820    18.1390   -20.0570 hc         1 YOY       0.025200
     69 H20        -14.8010    20.0200   -21.3050 hc         1 YOY       0.034700
     70 H21        -15.2780    20.5580   -19.6990 hc         1 YOY       0.034700
     71 H22        -12.3870    19.8990   -20.5000 hc         1 YOY       0.040200
     72 H23        -12.8880    20.6020   -18.9720 hc         1 YOY       0.040200
     73 H24        -11.9150    22.3030   -20.4930 hc         1 YOY       0.024700
     74 H25        -13.0850    21.9090   -21.7400 hc         1 YOY       0.024700
     75 H26        -13.6980    24.0060   -20.6560 hc         1 YOY       0.028700
     76 H27        -14.9400    22.8050   -20.3470 hc         1 YOY       0.028700
     77 H28        -14.0330    22.4510   -18.0260 hc         1 YOY       0.047200
     78 H29        -12.7110    23.5640   -18.3690 hc         1 YOY       0.047200
     79 H30        -14.3580    24.7320   -17.0360 hc         1 YOY       0.040200
     80 H31        -14.3640    25.4420   -18.6450 hc         1 YOY       0.040200
     81 H32        -16.6850    25.1430   -17.7140 hc         1 YOY       0.030033
     82 H33        -16.4760    24.2080   -19.2070 hc         1 YOY       0.030033
     83 H34        -16.4290    23.3860   -17.6290 hc         1 YOY       0.030033
     84 H35        -19.0430    15.0930    -2.6630 h5         1 YOY       0.082800
     85 H36        -19.0040    11.9740    -4.8650 h2         1 YOY       0.105700
     86 H37        -15.5820    13.3640    -5.6780 h1         1 YOY       0.144700
     87 H38        -15.3770    14.5780    -3.5300 h1         1 YOY       0.018200
     88 H39        -16.9840    15.2760    -3.7100 h1         1 YOY       0.018200
     89 H40        -13.4050    15.1750    -9.8250 h1         1 YOY       0.012200
     90 H41        -11.9420    16.0860    -9.4290 h1         1 YOY       0.012200
     91 H42        -12.6020    17.9070   -11.0250 h1         1 YOY       0.078700
     92 H43        -10.6710    15.1280   -12.7460 ho         1 YOY       0.502000
     93 H44        -18.6830    13.0420    -7.4440 ho         1 YOY       0.503000
     94 H45        -20.8280    14.1220    -5.6180 ho         1 YOY       0.495000
@<TRIPOS>BOND
     1     1     2 1   
     2     1    50 1   
     3     1    51 1   
     4     2    25 ar  
     5     2    31 ar  
     6     3    26 1   
     7     3    27 1   
     8     4    31 ar  
     9     4    32 ar  
    10     4    52 1   
    11     5    10 1   
    12     5    46 1   
    13     5    47 1   
    14     5    53 1   
    15     6     7 1   
    16     6    36 1   
    17     6    47 1   
    18     6    54 1   
    19     7     8 1   
    20     7    55 1   
    21     7    56 1   
    22     8     9 1   
    23     8    57 1   
    24     8    58 1   
    25     9    14 1   
    26     9    59 1   
    27     9    60 1   
    28    10    11 1   
    29    10    36 1   
    30    10    61 1   
    31    11    30 1   
    32    11    37 1   
    33    11    62 1   
    34    12    13 1   
    35    12    27 1   
    36    12    38 1   
    37    12    63 1   
    38    13    26 1   
    39    13    39 1   
    40    13    64 1   
    41    14    16 1   
    42    14    65 1   
    43    14    66 1   
    44    15    25 ar  
    45    15    32 ar  
    46    15    33 1   
    47    16    17 1   
    48    16    67 1   
    49    16    68 1   
    50    17    18 1   
    51    17    69 1   
    52    17    70 1   
    53    18    19 1   
    54    18    71 1   
    55    18    72 1   
    56    19    20 1   
    57    19    73 1   
    58    19    74 1   
    59    20    21 1   
    60    20    75 1   
    61    20    76 1   
    62    21    22 1   
    63    21    77 1   
    64    21    78 1   
    65    22    23 1   
    66    22    79 1   
    67    22    80 1   
    68    23    81 1   
    69    23    82 1   
    70    23    83 1   
    71    24    33 1   
    72    24    34 2   
    73    24    84 1   
    74    25    34 1   
    75    26    33 1   
    76    26    85 1   
    77    27    28 1   
    78    27    86 1   
    79    28    35 1   
    80    28    87 1   
    81    28    88 1   
    82    29    30 1   
    83    29    45 1   
    84    29    89 1   
    85    29    90 1   
    86    30    46 1   
    87    30    91 1   
    88    35    48 1   
    89    37    92 1   
    90    38    93 1   
    91    39    94 1   
    92    40    48 1   
    93    41    48 1   
    94    42    48 1   
    95    42    49 1   
    96    43    49 1   
    97    44    49 1   
    98    45    49 1   
@<TRIPOS>SUBSTRUCTURE
     1 YOY         1 TEMP              0 ****  ****    0 ROOT
