@<TRIPOS>MOLECULE
YOY
   94    98     1     0     0
SMALL
bcc


@<TRIPOS>ATOM
      1 N          -22.3390    15.1890    -0.9880 nv         1 YOY      -0.971500
      2 C          -21.1450    14.7330    -1.3720 ca         1 YOY       0.767200
      3 O          -17.3660    15.4490    -5.4690 os         1 YOY      -0.412600
      4 C1         -19.1820    13.6430    -0.8750 ca         1 YOY       0.685900
      5 C10        -13.6320    13.7510   -13.4900 c5         1 YOY       0.314900
      6 C11        -13.9260    13.3700   -15.7300 c5         1 YOY       0.344900
      7 C12        -14.3580    14.3370   -16.8120 c3         1 YOY      -0.078400
      8 C13        -14.1460    15.8100   -16.4890 c3         1 YOY      -0.078400
      9 C14        -14.5620    16.7240   -17.6350 c3         1 YOY      -0.068400
     10 C15        -12.3060    13.3170   -14.1090 c5         1 YOY       0.070100
     11 C16        -11.2770    14.3360   -13.6190 c5         1 YOY       0.099100
     12 C17        -16.9930    13.7480    -7.0670 c5         1 YOY       0.142100
     13 C18        -18.2270    13.4140    -6.2370 c5         1 YOY       0.049100
     14 C19        -14.4740    18.1980   -17.2620 c3         1 YOY      -0.082400
     15 C2         -19.4060    14.3520    -2.9400 ca         1 YOY       0.453800
     16 C20        -14.8390    19.1330   -18.4090 c3         1 YOY      -0.071400
     17 C21        -14.9360    20.6020   -18.0040 c3         1 YOY      -0.072400
     18 C22        -13.6260    21.1940   -17.4950 c3         1 YOY      -0.074400
     19 C23        -13.7030    22.6880   -17.1850 c3         1 YOY      -0.069400
     20 C24        -14.7410    23.0770   -16.1330 c3         1 YOY      -0.072400
     21 C25        -14.5490    22.3810   -14.7900 c3         1 YOY      -0.077400
     22 C26        -15.4980    22.8670   -13.6990 c3         1 YOY      -0.073400
     23 C27        -16.9640    22.5610   -13.9790 c3         1 YOY      -0.088100
     24 C3         -20.2630    15.3010    -4.7140 cc         1 YOY       0.431700
     25 C4         -20.6580    14.8860    -2.6830 ca         1 YOY      -0.228200
     26 C5         -17.9750    14.2800    -4.9950 c5         1 YOY       0.217800
     27 C6         -16.8470    15.2390    -6.7900 c5         1 YOY       0.099100
     28 C7         -17.6320    16.1300    -7.7510 c3         1 YOY       0.202400
     29 C8         -11.9580    14.9030   -11.2110 c3         1 YOY       0.201400
     30 C9         -12.1110    15.2520   -12.6860 c5         1 YOY       0.100100
     31 N1         -20.3690    14.1000    -0.4850 nb         1 YOY      -0.847000
     32 N2         -18.6230    13.7180    -2.0700 nb         1 YOY      -0.718000
     33 N3         -19.1650    14.6200    -4.2580 na         1 YOY      -0.243000
     34 N4         -21.1760    15.4780    -3.8070 nd         1 YOY      -0.590100
     35 O1         -17.1940    15.9840    -9.0820 os         1 YOY      -0.568200
     36 O13        -12.5500    13.4700   -15.4910 os         1 YOY      -0.442600
     37 O14        -10.1990    13.6840   -13.0010 oh         1 YOY      -0.594800
     38 O15        -15.8520    13.0960    -6.5670 oh         1 YOY      -0.560800
     39 O16        -18.3160    12.0490    -5.9740 oh         1 YOY      -0.582800
     40 O2         -16.0640    16.6750   -11.1970 o          1 YOY      -0.839000
     41 O3         -16.2150    18.3600    -9.2010 o          1 YOY      -0.839000
     42 O4         -14.6740    16.4100    -9.0210 os         1 YOY      -0.712800
     43 O5         -12.9590    14.8460    -8.0630 o          1 YOY      -0.858500
     44 O6         -14.5730    13.9500    -9.8860 o          1 YOY      -0.858500
     45 O7         -12.8160    15.7400   -10.4650 os         1 YOY      -0.555200
     46 O8         -13.4460    15.0970   -13.1270 os         1 YOY      -0.348600
     47 O9         -14.5710    13.6410   -14.4960 os         1 YOY      -0.400600
     48 P          -16.0490    16.9720    -9.7350 p5         1 YOY       1.462800
     49 P1         -13.7690    15.0720    -9.3010 p5         1 YOY       1.471800
     50 H1         -22.6460    15.0720    -0.0380 hn         1 YOY       0.441800
     51 H2         -22.9400    15.6750    -1.6290 hn         1 YOY       0.441800
     52 H3         -18.6010    13.1420    -0.1070 h5         1 YOY       0.035100
     53 H4         -13.9520    13.1580   -12.6250 h2         1 YOY       0.137700
     54 H5         -14.1880    12.3430   -16.0260 h2         1 YOY       0.027700
     55 H6         -15.4170    14.1510   -17.0190 hc         1 YOY       0.033700
     56 H7         -13.8260    14.0670   -17.7300 hc         1 YOY       0.033700
     57 H8         -13.0960    15.9940   -16.2470 hc         1 YOY       0.071700
     58 H9         -14.7180    16.0770   -15.5970 hc         1 YOY       0.071700
     59 H10        -15.5880    16.4900   -17.9390 hc         1 YOY       0.019700
     60 H11        -13.9340    16.5260   -18.5100 hc         1 YOY       0.019700
     61 H12        -12.0240    12.2890   -13.8550 h1         1 YOY       0.072700
     62 H13        -10.9410    14.9230   -14.4810 h1         1 YOY       0.038700
     63 H14        -17.1430    13.5430    -8.1320 h1         1 YOY       0.117700
     64 H15        -19.1170    13.7830    -6.7650 h1         1 YOY       0.045700
     65 H16        -15.1390    18.3940   -16.4130 hc         1 YOY       0.051700
     66 H17        -13.4610    18.4160   -16.9080 hc         1 YOY       0.051700
     67 H18        -14.1060    19.0220   -19.2160 hc         1 YOY       0.025200
     68 H19        -15.8000    18.8200   -18.8300 hc         1 YOY       0.025200
     69 H20        -15.2800    21.1890   -18.8630 hc         1 YOY       0.034700
     70 H21        -15.7140    20.7030   -17.2390 hc         1 YOY       0.034700
     71 H22        -12.8480    21.0310   -18.2480 hc         1 YOY       0.040200
     72 H23        -13.2940    20.6530   -16.6060 hc         1 YOY       0.040200
     73 H24        -12.7170    23.0290   -16.8530 hc         1 YOY       0.024700
     74 H25        -13.9170    23.2330   -18.1100 hc         1 YOY       0.024700
     75 H26        -14.6940    24.1600   -15.9810 hc         1 YOY       0.028700
     76 H27        -15.7450    22.8760   -16.5170 hc         1 YOY       0.028700
     77 H28        -14.6740    21.3000   -14.9090 hc         1 YOY       0.047200
     78 H29        -13.5160    22.5300   -14.4580 hc         1 YOY       0.047200
     79 H30        -15.2140    22.4020   -12.7510 hc         1 YOY       0.040200
     80 H31        -15.3690    23.9450   -13.5570 hc         1 YOY       0.040200
     81 H32        -17.5970    22.8550   -13.1410 hc         1 YOY       0.030033
     82 H33        -17.3300    23.0870   -14.8620 hc         1 YOY       0.030033
     83 H34        -17.1140    21.4920   -14.1480 hc         1 YOY       0.030033
     84 H35        -20.3300    15.6510    -5.7340 h5         1 YOY       0.082800
     85 H36        -17.3280    13.7430    -4.2930 h2         1 YOY       0.105700
     86 H37        -15.7920    15.5250    -6.7960 h1         1 YOY       0.144700
     87 H38        -17.5610    17.1680    -7.4130 h1         1 YOY       0.018200
     88 H39        -18.6920    15.8550    -7.7240 h1         1 YOY       0.018200
     89 H40        -12.1720    13.8420   -11.0440 h1         1 YOY       0.012200
     90 H41        -10.9230    15.0720   -10.9010 h1         1 YOY       0.012200
     91 H42        -11.8520    16.3050   -12.8250 h1         1 YOY       0.078700
     92 H43         -9.5050    14.3280   -12.8320 ho         1 YOY       0.403000
     93 H44        -15.9880    12.1450    -6.6330 ho         1 YOY       0.404000
     94 H45        -19.1820    11.8530    -5.6020 ho         1 YOY       0.396000
@<TRIPOS>BOND
     1     1     2 1   
     2     1    50 1   
     3     1    51 1   
     4     2    25 ar  
     5     2    31 ar  
     6     3    26 1   
     7     3    27 1   
     8     4    31 ar  
     9     4    32 ar  
    10     4    52 1   
    11     5    10 1   
    12     5    46 1   
    13     5    47 1   
    14     5    53 1   
    15     6     7 1   
    16     6    36 1   
    17     6    47 1   
    18     6    54 1   
    19     7     8 1   
    20     7    55 1   
    21     7    56 1   
    22     8     9 1   
    23     8    57 1   
    24     8    58 1   
    25     9    14 1   
    26     9    59 1   
    27     9    60 1   
    28    10    11 1   
    29    10    36 1   
    30    10    61 1   
    31    11    30 1   
    32    11    37 1   
    33    11    62 1   
    34    12    13 1   
    35    12    27 1   
    36    12    38 1   
    37    12    63 1   
    38    13    26 1   
    39    13    39 1   
    40    13    64 1   
    41    14    16 1   
    42    14    65 1   
    43    14    66 1   
    44    15    25 ar  
    45    15    32 ar  
    46    15    33 1   
    47    16    17 1   
    48    16    67 1   
    49    16    68 1   
    50    17    18 1   
    51    17    69 1   
    52    17    70 1   
    53    18    19 1   
    54    18    71 1   
    55    18    72 1   
    56    19    20 1   
    57    19    73 1   
    58    19    74 1   
    59    20    21 1   
    60    20    75 1   
    61    20    76 1   
    62    21    22 1   
    63    21    77 1   
    64    21    78 1   
    65    22    23 1   
    66    22    79 1   
    67    22    80 1   
    68    23    81 1   
    69    23    82 1   
    70    23    83 1   
    71    24    33 1   
    72    24    34 2   
    73    24    84 1   
    74    25    34 1   
    75    26    33 1   
    76    26    85 1   
    77    27    28 1   
    78    27    86 1   
    79    28    35 1   
    80    28    87 1   
    81    28    88 1   
    82    29    30 1   
    83    29    45 1   
    84    29    89 1   
    85    29    90 1   
    86    30    46 1   
    87    30    91 1   
    88    35    48 1   
    89    37    92 1   
    90    38    93 1   
    91    39    94 1   
    92    40    48 1   
    93    41    48 1   
    94    42    48 1   
    95    42    49 1   
    96    43    49 1   
    97    44    49 1   
    98    45    49 1   
@<TRIPOS>SUBSTRUCTURE
     1 YOY         1 TEMP              0 ****  ****    0 ROOT
