@<TRIPOS>MOLECULE
YOZ
   41    42     1     0     0
SMALL
abcg2


@<TRIPOS>ATOM
      1 N1         -10.4440     4.5170    -1.1550 n8         1 YOZ      -1.028200
      2 C1          -9.2890     4.0620    -1.8800 c6         1 YOZ       0.369200
      3 O1          -8.6140     5.0770    -2.6040 oh         1 YOZ      -0.676000
      4 C2          -8.3290     3.3600    -0.9170 c6         1 YOZ      -0.104400
      5 C3          -7.1760     2.6950    -1.6570 c6         1 YOZ      -0.074400
      6 C4          -7.6770     1.7520    -2.7480 c6         1 YOZ       0.028700
      7 C5          -8.2350     0.4390    -2.1760 c          1 YOZ       0.590100
      8 O2          -7.7980    -0.0220    -1.1320 o          1 YOZ      -0.603100
      9 N2          -9.1550    -0.1730    -2.9320 ns         1 YOZ      -0.497900
     10 C6          -9.7890    -1.4290    -2.5800 c6         1 YOZ       0.111700
     11 C7         -10.1000    -2.2310    -3.8390 c6         1 YOZ      -0.130900
     12 C8         -10.8280    -3.5260    -3.4790 c6         1 YOZ       0.152300
     13 N3         -12.0220    -3.3330    -2.6740 n7         1 YOZ      -0.845400
     14 C9         -11.7470    -2.5500    -1.4810 c6         1 YOZ       0.152300
     15 C10        -11.0600    -1.2140    -1.7600 c6         1 YOZ      -0.130900
     16 N4          -8.6330     2.4320    -3.6000 n          1 YOZ      -0.421800
     17 C11         -8.3330     2.7110    -4.8860 c          1 YOZ       0.607900
     18 O3          -9.0030     3.3860    -5.6420 o          1 YOZ      -0.577100
     19 C12         -9.7580     3.0530    -2.9290 c6         1 YOZ       0.102000
     20 H1         -10.1720     5.1070    -0.3780 hn         1 YOZ       0.410500
     21 H2         -11.0410     5.0760    -1.7540 hn         1 YOZ       0.410500
     22 H4          -8.1680     5.6570    -1.9760 ho         1 YOZ       0.438000
     23 H5          -7.9400     4.0820    -0.1910 hc         1 YOZ       0.059700
     24 H6          -8.8860     2.6160    -0.3420 hc         1 YOZ       0.059700
     25 H7          -6.5420     2.1490    -0.9600 hc         1 YOZ       0.065200
     26 H8          -6.5440     3.4500    -2.1280 hc         1 YOZ       0.065200
     27 H9          -6.8250     1.4580    -3.3720 h1         1 YOZ       0.074700
     28 H10         -9.4870     0.2980    -3.7600 hn         1 YOZ       0.321500
     29 H11         -9.0750    -1.9950    -1.9750 h1         1 YOZ       0.080700
     30 H12         -9.1790    -2.4570    -4.3820 hc         1 YOZ       0.050200
     31 H13        -10.7330    -1.6360    -4.5070 hc         1 YOZ       0.050200
     32 H14        -11.0980    -4.0660    -4.3880 h1         1 YOZ       0.056450
     33 H15        -10.1460    -4.1780    -2.9220 h1         1 YOZ       0.056450
     34 H16        -12.7200    -2.8520    -3.2310 hn         1 YOZ       0.404000
     35 H18        -12.6810    -2.3870    -0.9420 h1         1 YOZ       0.056450
     36 H19        -11.1070    -3.1490    -0.8240 h1         1 YOZ       0.056450
     37 H20        -10.8180    -0.7100    -0.8210 hc         1 YOZ       0.050200
     38 H21        -11.7380    -0.5560    -2.3130 hc         1 YOZ       0.050200
     39 H22         -7.3970     2.2260    -5.2040 h5         1 YOZ       0.007200
     40 H23        -10.3940     3.5350    -3.6710 h1         1 YOZ       0.076200
     41 H24        -10.3590     2.2880    -2.4310 h1         1 YOZ       0.076200
@<TRIPOS>BOND
     1     1     2 1   
     2     1    20 1   
     3     1    21 1   
     4     2     3 1   
     5     2     4 1   
     6     2    19 1   
     7     3    22 1   
     8     4     5 1   
     9     4    23 1   
    10     4    24 1   
    11     5     6 1   
    12     5    25 1   
    13     5    26 1   
    14     6     7 1   
    15     6    16 1   
    16     6    27 1   
    17     7     8 2   
    18     7     9 1   
    19     9    10 1   
    20     9    28 1   
    21    10    11 1   
    22    10    15 1   
    23    10    29 1   
    24    11    12 1   
    25    11    30 1   
    26    11    31 1   
    27    12    13 1   
    28    12    32 1   
    29    12    33 1   
    30    13    14 1   
    31    13    34 1   
    32    14    15 1   
    33    14    35 1   
    34    14    36 1   
    35    15    37 1   
    36    15    38 1   
    37    16    17 1   
    38    16    19 1   
    39    17    18 2   
    40    17    39 1   
    41    19    40 1   
    42    19    41 1   
@<TRIPOS>SUBSTRUCTURE
     1 YOZ         1 TEMP              0 ****  ****    0 ROOT
