@<TRIPOS>MOLECULE
YOZ
   41    42     1     0     0
SMALL
No Charge or Current Charge


@<TRIPOS>ATOM
      1 N1         -10.8630     4.6850    -3.3270 n8         1 YOZ      -1.028200
      2 C1          -9.6120     4.1780    -2.8500 c6         1 YOZ       0.369200
      3 O1          -8.9990     5.3280    -2.3390 oh         1 YOZ      -0.676000
      4 C2          -9.8550     3.1530    -1.7180 c6         1 YOZ      -0.104400
      5 C3          -8.5150     2.5540    -1.2240 c6         1 YOZ      -0.074400
      6 C4          -7.7220     1.8840    -2.3880 c6         1 YOZ       0.028700
      7 C5          -8.2290     0.4630    -2.8160 c          1 YOZ       0.590100
      8 O2          -7.8420    -0.0700    -3.8480 o          1 YOZ      -0.603100
      9 N2          -9.0970    -0.1910    -1.9640 ns         1 YOZ      -0.497900
     10 C6          -9.7000    -1.5060    -2.2030 c6         1 YOZ       0.111700
     11 C7         -10.9400    -1.3780    -3.1220 c6         1 YOZ      -0.130900
     12 C8         -11.6320    -2.7470    -3.3100 c6         1 YOZ       0.152300
     13 N3         -12.0010    -3.3350    -2.0000 n7         1 YOZ      -0.845400
     14 C9         -10.8360    -3.5020    -1.0980 c6         1 YOZ       0.152300
     15 C10        -10.1280    -2.1470    -0.8620 c6         1 YOZ      -0.130900
     16 N4          -7.5300     2.8180    -3.5480 n          1 YOZ      -0.421800
     17 C11         -6.4550     2.6110    -4.4330 c          1 YOZ       0.607900
     18 O3          -6.3550     3.1960    -5.5060 o          1 YOZ      -0.577100
     19 C12         -8.7530     3.5570    -4.0020 c6         1 YOZ       0.102000
     20 H1         -11.3810     4.9860    -2.4980 hn         1 YOZ       0.410500
     21 H2         -10.6380     5.5790    -3.7710 hn         1 YOZ       0.410500
     22 H4          -8.0770     5.0620    -2.1400 ho         1 YOZ       0.438000
     23 H5         -10.3800     3.6260    -0.8770 hc         1 YOZ       0.059700
     24 H6         -10.5100     2.3480    -2.0790 hc         1 YOZ       0.059700
     25 H7          -8.6820     1.8560    -0.3930 hc         1 YOZ       0.065200
     26 H8          -7.8980     3.3550    -0.7930 hc         1 YOZ       0.065200
     27 H9          -6.7260     1.6700    -1.9740 h1         1 YOZ       0.074700
     28 H10         -9.3630     0.3020    -1.1220 hn         1 YOZ       0.321500
     29 H11         -8.9550    -2.1570    -2.6870 h1         1 YOZ       0.080700
     30 H12        -10.6420    -0.9820    -4.1010 hc         1 YOZ       0.050200
     31 H13        -11.6530    -0.6580    -2.6960 hc         1 YOZ       0.050200
     32 H14        -12.5340    -2.6240    -3.9290 h1         1 YOZ       0.056450
     33 H15        -10.9550    -3.4310    -3.8450 h1         1 YOZ       0.056450
     34 H16        -12.6730    -2.7050    -1.5430 hn         1 YOZ       0.404000
     35 H18        -11.1680    -3.9190    -0.1350 h1         1 YOZ       0.056450
     36 H19        -10.1250    -4.2170    -1.5400 h1         1 YOZ       0.056450
     37 H20         -9.2480    -2.3000    -0.2230 hc         1 YOZ       0.050200
     38 H21        -10.8010    -1.4720    -0.3150 hc         1 YOZ       0.050200
     39 H22         -5.7150     1.8790    -4.0580 h5         1 YOZ       0.007200
     40 H23         -8.4680     4.3580    -4.7000 h1         1 YOZ       0.076200
     41 H24         -9.3830     2.8560    -4.5680 h1         1 YOZ       0.076200
@<TRIPOS>BOND
     1     1     2 1   
     2     1    20 1   
     3     1    21 1   
     4     2     3 1   
     5     2     4 1   
     6     2    19 1   
     7     3    22 1   
     8     4     5 1   
     9     4    23 1   
    10     4    24 1   
    11     5     6 1   
    12     5    25 1   
    13     5    26 1   
    14     6     7 1   
    15     6    16 1   
    16     6    27 1   
    17     7     8 2   
    18     7     9 1   
    19     9    10 1   
    20     9    28 1   
    21    10    11 1   
    22    10    15 1   
    23    10    29 1   
    24    11    12 1   
    25    11    30 1   
    26    11    31 1   
    27    12    13 1   
    28    12    32 1   
    29    12    33 1   
    30    13    14 1   
    31    13    34 1   
    32    14    15 1   
    33    14    35 1   
    34    14    36 1   
    35    15    37 1   
    36    15    38 1   
    37    16    17 1   
    38    16    19 1   
    39    17    18 2   
    40    17    39 1   
    41    19    40 1   
    42    19    41 1   
@<TRIPOS>SUBSTRUCTURE
     1 YOZ         1 TEMP              0 ****  ****    0 ROOT
