@<TRIPOS>MOLECULE
YP3
   35    37     1     0     0
SMALL
No Charge or Current Charge


@<TRIPOS>ATOM
      1 C10          9.5960    11.6120    26.1260 ca         1 YP3      -0.169000
      2 C11          8.7150    12.7020    26.0640 ca         1 YP3       0.350900
      3 C13         11.7010    12.8920    18.8010 c          1 YP3       0.617700
      4 C15         13.2390    14.5690    17.7450 ca         1 YP3       0.002000
      5 C16         14.5000    15.1210    17.4700 ca         1 YP3      -0.069900
      6 C17         15.6570    14.5390    18.0010 ca         1 YP3      -0.021000
      7 C18         15.5470    13.3980    18.8090 ca         1 YP3      -0.219000
      8 C19         14.2900    12.8350    19.0920 ca         1 YP3       0.179100
      9 C14         13.1060    13.4170    18.5590 ca         1 YP3      -0.185600
     10 C2          10.2890    11.1550    19.9590 c3         1 YP3       0.153300
     11 C3           9.7660    11.7060    21.2770 ca         1 YP3      -0.093300
     12 C4           8.8810    12.8000    21.2890 ca         1 YP3      -0.097000
     13 C5           8.4030    13.3120    22.5080 ca         1 YP3      -0.079000
     14 C6           8.7960    12.7490    23.7360 ca         1 YP3       0.267000
     15 C7           9.6910    11.6470    23.7170 ca         1 YP3      -0.079000
     16 C8          10.1700    11.1330    22.4970 ca         1 YP3      -0.080000
     17 C9          10.0970    11.0700    24.9330 ca         1 YP3      -0.060000
     18 N1          11.5590    11.7770    19.5880 ns         1 YP3      -0.499900
     19 N12          8.3200    13.2620    24.8960 nb         1 YP3      -0.659000
     20 O22         10.7200    13.4380    18.3140 o          1 YP3      -0.600100
     21 Br21        14.6380    16.6780    16.3670 br         1 YP3      -0.083100
     22 H30          9.8830    11.1990    27.0890 ha         1 YP3       0.122000
     23 H31          8.3110    13.1430    26.9750 h4         1 YP3       0.017100
     24 H32         12.3590    15.0460    17.3170 ha         1 YP3       0.161000
     25 H33         16.6340    14.9680    17.7870 ha         1 YP3       0.133000
     26 H34         16.4530    12.9540    19.2160 ha         1 YP3       0.120000
     27 H24          9.5490    11.3170    19.1630 h1         1 YP3       0.061200
     28 H25         10.4430    10.0720    20.0480 h1         1 YP3       0.061200
     29 H26          8.5650    13.2560    20.3540 ha         1 YP3       0.114000
     30 H27          7.7200    14.1570    22.5030 ha         1 YP3       0.131000
     31 H28         10.8570    10.2900    22.4950 ha         1 YP3       0.116000
     32 H29         10.7820    10.2250    24.9540 ha         1 YP3       0.117000
     33 H23         12.4220    11.3900    19.9560 hn         1 YP3       0.336500
     34 H35         15.1930    11.5070    20.1320 ho         1 YP3       0.482000
     35 O20         14.2690    11.7260    19.8850 oh         1 YP3      -0.552100
@<TRIPOS>BOND
     1     1     2 ar  
     2     1    17 ar  
     3     1    22 1   
     4     2    19 ar  
     5     2    23 1   
     6     3     9 1   
     7     3    18 1   
     8     3    20 2   
     9     4     5 ar  
    10     4     9 ar  
    11     4    24 1   
    12     5     6 ar  
    13     5    21 1   
    14     6     7 ar  
    15     6    25 1   
    16     7     8 ar  
    17     7    26 1   
    18     8     9 ar  
    19     8    35 1   
    20    10    11 1   
    21    10    18 1   
    22    10    27 1   
    23    10    28 1   
    24    11    12 ar  
    25    11    16 ar  
    26    12    13 ar  
    27    12    29 1   
    28    13    14 ar  
    29    13    30 1   
    30    14    15 ar  
    31    14    19 ar  
    32    15    16 ar  
    33    15    17 ar  
    34    16    31 1   
    35    17    32 1   
    36    18    33 1   
    37    34    35 1   
@<TRIPOS>SUBSTRUCTURE
     1 YP3         1 TEMP              0 ****  ****    0 ROOT
