@<TRIPOS>MOLECULE
YP3
   35    37     1     0     0
SMALL
abcg2


@<TRIPOS>ATOM
      1 C10         10.2430    12.6840    25.7140 ca         1 YP3      -0.169000
      2 C11          8.8400    12.6690    25.8550 ca         1 YP3       0.350900
      3 C13         11.7500    13.0930    19.1790 c          1 YP3       0.617700
      4 C15         13.5340    14.6670    18.5830 ca         1 YP3       0.002000
      5 C16         14.8410    15.0410    18.3450 ca         1 YP3      -0.069900
      6 C17         15.8710    14.1200    18.4710 ca         1 YP3      -0.021000
      7 C18         15.5710    12.8240    18.8400 ca         1 YP3      -0.219000
      8 C19         14.2560    12.4320    19.0830 ca         1 YP3       0.179100
      9 C14         13.2120    13.3600    18.9500 ca         1 YP3      -0.185600
     10 C2           9.9800    11.4940    19.6280 c3         1 YP3       0.153300
     11 C3           9.5210    11.7830    21.0380 ca         1 YP3      -0.093300
     12 C4           8.1290    11.7920    21.2990 ca         1 YP3      -0.097000
     13 C5           7.6400    12.0120    22.5550 ca         1 YP3      -0.079000
     14 C6           8.5230    12.2410    23.6360 ca         1 YP3       0.267000
     15 C7           9.9160    12.2350    23.3820 ca         1 YP3      -0.079000
     16 C8          10.3910    12.0010    22.0720 ca         1 YP3      -0.080000
     17 C9          10.7790    12.4680    24.4760 ca         1 YP3      -0.060000
     18 N1          11.3550    11.8220    19.3670 ns         1 YP3      -0.499900
     19 N12          8.0090    12.4590    24.8690 nb         1 YP3      -0.659000
     20 O22         10.9500    14.0180    19.1750 o          1 YP3      -0.600100
     21 BR21        15.2370    16.8190    17.8480 br         1 YP3      -0.083100
     22 H30         10.8690    12.8660    26.5770 ha         1 YP3       0.122000
     23 H31          8.4020    12.8390    26.8340 h4         1 YP3       0.017100
     24 H32         12.7310    15.3850    18.4890 ha         1 YP3       0.161000
     25 H33         16.9010    14.3970    18.2880 ha         1 YP3       0.133000
     26 H34         16.3740    12.1040    18.9440 ha         1 YP3       0.120000
     27 H24          9.3280    12.0150    18.9240 h1         1 YP3       0.061200
     28 H25          9.8580    10.4280    19.4260 h1         1 YP3       0.061200
     29 H26          7.4400    11.6240    20.4790 ha         1 YP3       0.114000
     30 H27          6.5750    12.0200    22.7450 ha         1 YP3       0.131000
     31 H28         11.4620    11.9970    21.9050 ha         1 YP3       0.116000
     32 H29         11.8510    12.4710    24.3210 ha         1 YP3       0.117000
     33 H23         12.0370    11.0820    19.3850 hn         1 YP3       0.336500
     34 H35         14.7700    10.6260    19.4870 ho         1 YP3       0.482000
     35 O20         13.9750    11.1720    19.4540 oh         1 YP3      -0.552100
@<TRIPOS>BOND
     1     1     2 ar  
     2     1    17 ar  
     3     1    22 1   
     4     2    19 ar  
     5     2    23 1   
     6     3     9 1   
     7     3    18 1   
     8     3    20 2   
     9     4     5 ar  
    10     4     9 ar  
    11     4    24 1   
    12     5     6 ar  
    13     5    21 1   
    14     6     7 ar  
    15     6    25 1   
    16     7     8 ar  
    17     7    26 1   
    18     8     9 ar  
    19     8    35 1   
    20    10    11 1   
    21    10    18 1   
    22    10    27 1   
    23    10    28 1   
    24    11    12 ar  
    25    11    16 ar  
    26    12    13 ar  
    27    12    29 1   
    28    13    14 ar  
    29    13    30 1   
    30    14    15 ar  
    31    14    19 ar  
    32    15    16 ar  
    33    15    17 ar  
    34    16    31 1   
    35    17    32 1   
    36    18    33 1   
    37    34    35 1   
@<TRIPOS>SUBSTRUCTURE
     1 YP3         1 TEMP              0 ****  ****    0 ROOT
