@<TRIPOS>MOLECULE
YP4
   48    50     1     0     0
SMALL
No Charge or Current Charge


@<TRIPOS>ATOM
      1 C1         211.9240   209.0040   229.5720 c3         1 YP4      -0.086100
      2 C4         210.2650   204.8950   228.7550 c3         1 YP4      -0.076400
      3 C5         210.1620   203.3590   228.6490 c3         1 YP4      -0.035100
      4 C6         209.0410   202.8030   229.5180 ca         1 YP4      -0.079300
      5 N          211.6760   206.9290   228.2710 n7         1 YP4      -0.866400
      6 CA         211.7100   207.4790   229.6480 c3         1 YP4       0.215800
      7 CB         212.7950   206.7910   230.5060 ca         1 YP4      -0.102300
      8 CG         212.5200   206.0860   231.7200 ca         1 YP4      -0.019000
      9 CD1        213.5850   205.4380   232.4030 ca         1 YP4      -0.040000
     10 CD2        211.2210   206.0010   232.2880 ca         1 YP4      -0.106000
     11 CE1        213.3470   204.7180   233.5900 ca         1 YP4      -0.100000
     12 CE2        210.9940   205.2800   233.4720 ca         1 YP4      -0.107000
     13 CZ         212.0530   204.6350   234.1220 ca         1 YP4      -0.106000
     14 C7         209.2110   202.7270   230.9140 ca         1 YP4      -0.061000
     15 C8         208.1850   202.2220   231.7420 ca         1 YP4      -0.196300
     16 C9         206.9740   201.8030   231.1490 ca         1 YP4      -0.063000
     17 C10        206.8020   201.8770   229.7570 ca         1 YP4      -0.115000
     18 C11        207.8320   202.3740   228.9420 ca         1 YP4      -0.078000
     19 C12        208.3700   202.1560   233.2630 c3         1 YP4       0.355300
     20 C14        214.1290   206.8420   230.0380 ca         1 YP4      -0.109000
     21 C15        215.1690   206.2090   230.7300 ca         1 YP4      -0.109000
     22 C16        214.8980   205.5030   231.9060 ca         1 YP4      -0.096000
     23 F1         207.7110   201.1110   233.8140 f          1 YP4      -0.115000
     24 F2         209.6680   202.0250   233.6220 f          1 YP4      -0.115000
     25 F3         207.9060   203.2760   233.8620 f          1 YP4      -0.115000
     26 H1         211.9360   209.4350   230.5800 hc         1 YP4       0.040700
     27 H2         212.8710   209.2550   229.0810 hc         1 YP4       0.040700
     28 H3         211.1100   209.4790   229.0110 hc         1 YP4       0.040700
     29 H4         211.5720   205.1910   227.0610 h1         1 YP4       0.032700
     30 H5         212.4250   204.9590   228.5890 h1         1 YP4       0.032700
     31 H6         210.2280   205.1630   229.8140 hc         1 YP4       0.049700
     32 H7         209.3920   205.3540   228.2760 hc         1 YP4       0.049700
     33 H8         210.0210   203.0770   227.5980 hc         1 YP4       0.050200
     34 H9         211.1150   202.9120   228.9600 hc         1 YP4       0.050200
     35 H10        212.5480   207.2120   227.8110 hn         1 YP4       0.413000
     36 H12        210.7210   207.3440   230.0920 h1         1 YP4       0.065700
     37 H13        210.3620   206.4860   231.8430 ha         1 YP4       0.114000
     38 H14        214.1670   204.2210   234.1030 ha         1 YP4       0.113000
     39 H15        209.9910   205.2250   233.8890 ha         1 YP4       0.118000
     40 H16        211.8740   204.0770   235.0380 ha         1 YP4       0.116000
     41 H17        210.1470   203.0700   231.3530 ha         1 YP4       0.129000
     42 H18        206.1610   201.4220   231.7650 ha         1 YP4       0.130000
     43 H19        205.8660   201.5510   229.3090 ha         1 YP4       0.121000
     44 H20        207.6860   202.4310   227.8650 ha         1 YP4       0.118000
     45 H21        214.3650   207.3710   229.1180 ha         1 YP4       0.107000
     46 H22        216.1870   206.2580   230.3480 ha         1 YP4       0.114000
     47 H23        215.7110   205.0080   232.4330 ha         1 YP4       0.114000
     48 C3         211.5610   205.4570   228.1270 c3         1 YP4       0.165800
@<TRIPOS>BOND
     1     1     6 1   
     2     1    26 1   
     3     1    27 1   
     4     1    28 1   
     5     2     3 1   
     6     2    31 1   
     7     2    32 1   
     8     2    48 1   
     9     3     4 1   
    10     3    33 1   
    11     3    34 1   
    12     4    14 ar  
    13     4    18 ar  
    14     5     6 1   
    15     5    35 1   
    16     5    48 1   
    17     6     7 1   
    18     6    36 1   
    19     7     8 ar  
    20     7    20 ar  
    21     8     9 ar  
    22     8    10 ar  
    23     9    11 ar  
    24     9    22 ar  
    25    10    12 ar  
    26    10    37 1   
    27    11    13 ar  
    28    11    38 1   
    29    12    13 ar  
    30    12    39 1   
    31    13    40 1   
    32    14    15 ar  
    33    14    41 1   
    34    15    16 ar  
    35    15    19 1   
    36    16    17 ar  
    37    16    42 1   
    38    17    18 ar  
    39    17    43 1   
    40    18    44 1   
    41    19    23 1   
    42    19    24 1   
    43    19    25 1   
    44    20    21 ar  
    45    20    45 1   
    46    21    22 ar  
    47    21    46 1   
    48    22    47 1   
    49    29    48 1   
    50    30    48 1   
@<TRIPOS>SUBSTRUCTURE
     1 YP4         1 TEMP              0 ****  ****    0 ROOT
