@<TRIPOS>MOLECULE
YP4
   48    50     1     0     0
SMALL
abcg2


@<TRIPOS>ATOM
      1 C1         211.7490   208.8860   229.4460 c3         1 YP4      -0.086100
      2 C4         210.2370   204.7460   228.9610 c3         1 YP4      -0.076400
      3 C5         210.1880   203.2180   228.9940 c3         1 YP4      -0.035100
      4 C6         208.9230   202.7170   229.6290 ca         1 YP4      -0.079300
      5 N          211.6270   206.7080   228.3770 n7         1 YP4      -0.866400
      6 CA         211.7390   207.3770   229.6660 c3         1 YP4       0.215800
      7 CB         212.9440   206.9260   230.4860 ca         1 YP4      -0.102300
      8 CG         212.8230   206.2230   231.7220 ca         1 YP4      -0.019000
      9 CD1        214.0040   205.7930   232.3940 ca         1 YP4      -0.040000
     10 CD2        211.5770   205.9140   232.3300 ca         1 YP4      -0.106000
     11 CE1        213.8990   205.0800   233.6130 ca         1 YP4      -0.100000
     12 CE2        211.5060   205.2160   233.5050 ca         1 YP4      -0.107000
     13 CZ         212.6800   204.7900   234.1580 ca         1 YP4      -0.106000
     14 C7         208.8720   202.4720   230.9970 ca         1 YP4      -0.061000
     15 C8         207.6910   202.0530   231.6000 ca         1 YP4      -0.196300
     16 C9         206.5410   201.8740   230.8410 ca         1 YP4      -0.063000
     17 C10        206.5860   202.1190   229.4760 ca         1 YP4      -0.115000
     18 C11        207.7650   202.5350   228.8770 ca         1 YP4      -0.078000
     19 C12        207.6870   201.7260   233.0600 c3         1 YP4       0.355300
     20 C14        214.2010   207.1660   229.9850 ca         1 YP4      -0.109000
     21 C15        215.3660   206.7500   230.6530 ca         1 YP4      -0.109000
     22 C16        215.2710   206.0740   231.8370 ca         1 YP4      -0.096000
     23 F1         206.4670   201.8140   233.6030 f          1 YP4      -0.115000
     24 F2         208.1150   200.4720   233.2810 f          1 YP4      -0.115000
     25 F3         208.4880   202.5320   233.7690 f          1 YP4      -0.115000
     26 H1         211.7920   209.4190   230.3950 hc         1 YP4       0.040700
     27 H2         212.6060   209.2020   228.8480 hc         1 YP4       0.040700
     28 H3         210.8440   209.1950   228.9220 hc         1 YP4       0.040700
     29 H4         211.7010   204.8900   227.4060 h1         1 YP4       0.032700
     30 H5         212.3830   204.8140   229.0200 h1         1 YP4       0.032700
     31 H6         210.0610   205.1190   229.9730 hc         1 YP4       0.049700
     32 H7         209.4220   205.1320   228.3420 hc         1 YP4       0.049700
     33 H8         210.2760   202.8290   227.9760 hc         1 YP4       0.050200
     34 H9         211.0510   202.8420   229.5490 hc         1 YP4       0.050200
     35 H10        212.4030   206.9880   227.7890 hn         1 YP4       0.413000
     36 H12        210.8260   207.1560   230.2180 h1         1 YP4       0.065700
     37 H13        210.6520   206.2320   231.8710 ha         1 YP4       0.114000
     38 H14        214.8090   204.7620   234.1070 ha         1 YP4       0.113000
     39 H15        210.5390   204.9900   233.9360 ha         1 YP4       0.118000
     40 H16        212.6120   204.2400   235.0870 ha         1 YP4       0.116000
     41 H17        209.7710   202.6120   231.5850 ha         1 YP4       0.129000
     42 H18        205.6150   201.5440   231.2930 ha         1 YP4       0.130000
     43 H19        205.6950   201.9810   228.8780 ha         1 YP4       0.121000
     44 H20        207.7890   202.7190   227.8090 ha         1 YP4       0.118000
     45 H21        214.3110   207.6900   229.0420 ha         1 YP4       0.107000
     46 H22        216.3350   206.9650   230.2210 ha         1 YP4       0.114000
     47 H23        216.1610   205.7440   232.3590 ha         1 YP4       0.114000
     48 C3         211.5680   205.2570   228.4270 c3         1 YP4       0.165800
@<TRIPOS>BOND
     1     1     6 1   
     2     1    26 1   
     3     1    27 1   
     4     1    28 1   
     5     2     3 1   
     6     2    31 1   
     7     2    32 1   
     8     2    48 1   
     9     3     4 1   
    10     3    33 1   
    11     3    34 1   
    12     4    14 ar  
    13     4    18 ar  
    14     5     6 1   
    15     5    35 1   
    16     5    48 1   
    17     6     7 1   
    18     6    36 1   
    19     7     8 ar  
    20     7    20 ar  
    21     8     9 ar  
    22     8    10 ar  
    23     9    11 ar  
    24     9    22 ar  
    25    10    12 ar  
    26    10    37 1   
    27    11    13 ar  
    28    11    38 1   
    29    12    13 ar  
    30    12    39 1   
    31    13    40 1   
    32    14    15 ar  
    33    14    41 1   
    34    15    16 ar  
    35    15    19 1   
    36    16    17 ar  
    37    16    42 1   
    38    17    18 ar  
    39    17    43 1   
    40    18    44 1   
    41    19    23 1   
    42    19    24 1   
    43    19    25 1   
    44    20    21 ar  
    45    20    45 1   
    46    21    22 ar  
    47    21    46 1   
    48    22    47 1   
    49    29    48 1   
    50    30    48 1   
@<TRIPOS>SUBSTRUCTURE
     1 YP4         1 TEMP              0 ****  ****    0 ROOT
