@<TRIPOS>MOLECULE
YP6
   35    37     1     0     0
SMALL
No Charge or Current Charge


@<TRIPOS>ATOM
      1 C10          0.9400    -0.9570     0.0160 c          1 YP6       0.603100
      2 C15         -5.0100     0.3650     0.0010 ca         1 YP6       0.321000
      3 C17         -6.1940     2.4960    -0.0270 ca         1 YP6      -0.080000
      4 C21         -3.6820    -1.8020     0.0290 cc         1 YP6      -0.259000
      5 C01          7.0980    -0.6390     0.0100 ca         1 YP6      -0.049000
      6 C02          5.7920    -1.1610     0.0180 ca         1 YP6      -0.152000
      7 C03          4.6800    -0.3030     0.0060 ca         1 YP6       0.164100
      8 C04          4.8770     1.0940    -0.0130 ca         1 YP6      -0.248000
      9 C05          6.1810     1.6110    -0.0200 ca         1 YP6       0.209000
     10 C06          7.2900     0.7520    -0.0090 ca         1 YP6      -0.185000
     11 F07          6.3690     2.9470    -0.0380 f          1 YP6      -0.178000
     12 O08          3.4250    -0.8750     0.0140 os         1 YP6      -0.310100
     13 C09          2.2140    -0.0820     0.0040 c3         1 YP6       0.086600
     14 N11         -0.2360    -0.2430     0.0070 ns         1 YP6      -0.475400
     15 C12         -1.5240    -0.7080     0.0130 cc         1 YP6       0.529300
     16 N13         -2.4840     0.1970     0.0020 nd         1 YP6      -0.704000
     17 C14         -3.7370    -0.4230     0.0110 cd         1 YP6       0.247000
     18 C16         -4.9870     1.7790    -0.0180 ca         1 YP6      -0.129000
     19 C18         -7.3950     1.7720    -0.0170 ca         1 YP6      -0.163000
     20 C19         -7.3460     0.3690     0.0020 ca         1 YP6       0.339900
     21 N20         -6.1850    -0.3270     0.0100 nb         1 YP6      -0.673000
     22 S22         -2.0430    -2.3810     0.0360 ss         1 YP6       0.071600
     23 O23          0.9700    -2.1810     0.0320 o          1 YP6      -0.533100
     24 H1          -6.1970     3.5850    -0.0410 ha         1 YP6       0.119000
     25 H2          -4.5000    -2.5080     0.0380 h4         1 YP6       0.178000
     26 H4           5.6400    -2.2370     0.0320 ha         1 YP6       0.139000
     27 H5           4.0430     1.7880    -0.0220 ha         1 YP6       0.131000
     28 H6           8.2950     1.1660    -0.0140 ha         1 YP6       0.137000
     29 H7           2.1730     0.5480    -0.8940 h1         1 YP6       0.059700
     30 H8           2.1730     0.5720     0.8840 h1         1 YP6       0.059700
     31 H9          -0.1370     0.7610    -0.0060 hn         1 YP6       0.340500
     32 H10         -4.0410     2.3130    -0.0250 ha         1 YP6       0.141000
     33 H11         -8.3540     2.2820    -0.0230 ha         1 YP6       0.123000
     34 H12         -8.2630    -0.2190     0.0100 h4         1 YP6       0.018100
     35 H3           7.9550    -1.3100     0.0190 ha         1 YP6       0.122000
@<TRIPOS>BOND
     1     1    13 1   
     2     1    14 1   
     3     1    23 2   
     4     2    17 1   
     5     2    18 ar  
     6     2    21 ar  
     7     3    18 ar  
     8     3    19 ar  
     9     3    24 1   
    10     4    17 2   
    11     4    22 1   
    12     4    25 1   
    13     5     6 ar  
    14     5    10 ar  
    15     5    35 1   
    16     6     7 ar  
    17     6    26 1   
    18     7     8 ar  
    19     7    12 1   
    20     8     9 ar  
    21     8    27 1   
    22     9    10 ar  
    23     9    11 1   
    24    10    28 1   
    25    12    13 1   
    26    13    29 1   
    27    13    30 1   
    28    14    15 1   
    29    14    31 1   
    30    15    16 2   
    31    15    22 1   
    32    16    17 1   
    33    18    32 1   
    34    19    20 ar  
    35    19    33 1   
    36    20    21 ar  
    37    20    34 1   
@<TRIPOS>SUBSTRUCTURE
     1 YP6         1 TEMP              0 ****  ****    0 ROOT
