@<TRIPOS>MOLECULE
YP6
   35    37     1     0     0
SMALL
abcg2


@<TRIPOS>ATOM
      1 C10          0.9450    -0.6610     0.0050 c          1 YP6       0.603100
      2 C15         -4.9420     0.3430     0.0020 ca         1 YP6       0.321000
      3 C17         -6.2650     2.3330    -0.0090 ca         1 YP6      -0.080000
      4 C21         -3.4790    -1.6980     0.0110 cc         1 YP6      -0.259000
      5 C01          6.8860    -0.8410     0.0340 ca         1 YP6      -0.049000
      6 C02          5.5640    -1.2440     0.0440 ca         1 YP6      -0.152000
      7 C03          4.5490    -0.2860     0.0120 ca         1 YP6       0.164100
      8 C04          4.8670     1.0680    -0.0280 ca         1 YP6      -0.248000
      9 C05          6.2050     1.4240    -0.0370 ca         1 YP6       0.209000
     10 C06          7.2320     0.5060    -0.0060 ca         1 YP6      -0.185000
     11 F07          6.5020     2.7320    -0.0770 f          1 YP6      -0.178000
     12 O08          3.2880    -0.7620     0.0230 os         1 YP6      -0.310100
     13 C09          2.2250     0.1460    -0.0050 c3         1 YP6       0.086600
     14 N11         -0.1780     0.1040     0.0050 ns         1 YP6      -0.475400
     15 C12         -1.4570    -0.3970     0.0070 cc         1 YP6       0.529300
     16 N13         -2.4880     0.3790     0.0040 nd         1 YP6      -0.704000
     17 C14         -3.6480    -0.3490     0.0060 cd         1 YP6       0.247000
     18 C16         -5.0150     1.7340    -0.0060 ca         1 YP6      -0.129000
     19 C18         -7.3960     1.5320    -0.0040 ca         1 YP6      -0.163000
     20 C19         -7.2180     0.1540     0.0040 ca         1 YP6       0.339900
     21 N20         -6.0290    -0.4280     0.0070 nb         1 YP6      -0.673000
     22 S22         -1.8080    -2.0930     0.0130 ss         1 YP6       0.071600
     23 O23          0.9030    -1.8720     0.0100 o          1 YP6      -0.533100
     24 H1          -6.3520     3.4110    -0.0160 ha         1 YP6       0.119000
     25 H2          -4.2360    -2.4650     0.0130 h4         1 YP6       0.178000
     26 H4           5.3080    -2.2950     0.0750 ha         1 YP6       0.139000
     27 H5           4.1170     1.8470    -0.0530 ha         1 YP6       0.131000
     28 H6           8.2650     0.8260    -0.0140 ha         1 YP6       0.137000
     29 H7           2.2400     0.7730    -0.9060 h1         1 YP6       0.059700
     30 H8           2.2310     0.8160     0.8630 h1         1 YP6       0.059700
     31 H9          -0.1060     1.1130     0.0020 hn         1 YP6       0.340500
     32 H10         -4.1140     2.3300    -0.0100 ha         1 YP6       0.141000
     33 H11         -8.3910     1.9550    -0.0070 ha         1 YP6       0.123000
     34 H12         -8.0770    -0.5070     0.0070 h4         1 YP6       0.018100
     35 H3           7.6680    -1.5880     0.0590 ha         1 YP6       0.122000
@<TRIPOS>BOND
     1     1    13 1   
     2     1    14 1   
     3     1    23 2   
     4     2    17 1   
     5     2    18 ar  
     6     2    21 ar  
     7     3    18 ar  
     8     3    19 ar  
     9     3    24 1   
    10     4    17 2   
    11     4    22 1   
    12     4    25 1   
    13     5     6 ar  
    14     5    10 ar  
    15     5    35 1   
    16     6     7 ar  
    17     6    26 1   
    18     7     8 ar  
    19     7    12 1   
    20     8     9 ar  
    21     8    27 1   
    22     9    10 ar  
    23     9    11 1   
    24    10    28 1   
    25    12    13 1   
    26    13    29 1   
    27    13    30 1   
    28    14    15 1   
    29    14    31 1   
    30    15    16 2   
    31    15    22 1   
    32    16    17 1   
    33    18    32 1   
    34    19    20 ar  
    35    19    33 1   
    36    20    21 ar  
    37    20    34 1   
@<TRIPOS>SUBSTRUCTURE
     1 YP6         1 TEMP              0 ****  ****    0 ROOT
