@<TRIPOS>MOLECULE
YP8
   52    56     1     0     0
SMALL
No Charge or Current Charge


@<TRIPOS>ATOM
      1 C10          2.8260    26.2960    13.5310 cc         1 YP8       0.190800
      2 C15          7.6040    22.9090    18.2190 ca         1 YP8      -0.079000
      3 C16          8.1300    21.7130    17.6760 ca         1 YP8      -0.101500
      4 C17          8.8440    21.7900    16.4590 ca         1 YP8      -0.094000
      5 C18          9.0260    23.0230    15.8140 ca         1 YP8      -0.106000
      6 C19          8.4990    24.2020    16.3620 ca         1 YP8       0.124000
      7 C21          7.9330    20.4250    18.3700 cc         1 YP8       0.297500
      8 C22          8.4080    19.1750    17.9260 cc         1 YP8      -0.214000
      9 C23          8.0220    18.2410    18.8360 cd         1 YP8      -0.177000
     10 C27          1.6350    27.8640    11.9510 ca         1 YP8      -0.101300
     11 C28          1.8200    29.1570    12.4790 ca         1 YP8      -0.100000
     12 C1           7.7740    24.1540    17.5740 ca         1 YP8      -0.103300
     13 C12          4.0640    25.8940    15.5020 cc         1 YP8       0.688400
     14 C14          2.7250    26.8100    12.1180 c3         1 YP8      -0.003900
     15 C2           7.1750    25.4070    18.2170 c3         1 YP8       0.274100
     16 C29          0.8170    30.1320    12.3360 ca         1 YP8      -0.104500
     17 C30         -0.3770    29.8190    11.6650 ca         1 YP8      -0.099000
     18 C31         -0.5680    28.5310    11.1380 ca         1 YP8      -0.104500
     19 C32          0.4350    27.5550    11.2810 ca         1 YP8      -0.100000
     20 C4           4.8430    25.4270    17.3030 cd         1 YP8       0.800900
     21 C7           1.7940    25.2260    15.6170 c          1 YP8       0.565000
     22 C9           1.7690    25.7370    14.2380 cd         1 YP8      -0.395200
     23 N11          4.0440    26.3670    14.2280 na         1 YP8      -0.758900
     24 N13          5.2150    25.9880    16.1050 nd         1 YP8      -0.766000
     25 N24          7.3250    18.9700    19.8010 na         1 YP8       0.141800
     26 N25          7.2700    20.3250    19.5100 nd         1 YP8      -0.515800
     27 N3           5.7110    25.2980    18.3080 nu         1 YP8      -0.905100
     28 N5           3.5870    25.0490    17.4030 nc         1 YP8      -0.563800
     29 N6           3.0450    25.3560    16.1870 n          1 YP8      -0.060500
     30 O8           0.8230    24.7450    16.1860 o          1 YP8      -0.476000
     31 H40          7.0520    22.8780    19.1560 ha         1 YP8       0.137000
     32 H41          9.2680    20.9010    16.0010 ha         1 YP8       0.118000
     33 H42          9.5820    23.0660    14.8810 ha         1 YP8       0.127000
     34 H43          8.9770    18.9920    17.0230 ha         1 YP8       0.145000
     35 H44          8.1750    17.1680    18.8830 h4         1 YP8       0.153000
     36 H45          5.6170    18.6430    20.9880 h1         1 YP8       0.058700
     37 H46          6.8500    17.3490    21.0640 h1         1 YP8       0.058700
     38 H47          7.1360    18.9060    21.8970 h1         1 YP8       0.058700
     39 H48          2.7410    29.4060    13.0020 ha         1 YP8       0.112500
     40 H38          3.6870    27.2290    11.8000 hc         1 YP8       0.073200
     41 H39          2.5400    25.9620    11.4470 hc         1 YP8       0.073200
     42 H33          7.6020    25.5180    19.2240 h1         1 YP8       0.075700
     43 H34          7.4520    26.3130    17.6640 h1         1 YP8       0.075700
     44 H49          0.9660    31.1280    12.7460 ha         1 YP8       0.118000
     45 H50         -1.1530    30.5730    11.5550 ha         1 YP8       0.118000
     46 H51         -1.4930    28.2870    10.6190 ha         1 YP8       0.118000
     47 H52          0.2750    26.5600    10.8710 ha         1 YP8       0.112500
     48 H36          0.7960    25.6490    13.7720 ha         1 YP8       0.220000
     49 H37          4.8970    26.7490    13.8400 hn         1 YP8       0.537000
     50 H35          5.3070    24.8110    19.1010 hn         1 YP8       0.495000
     51 Cl20         8.7860    25.7140    15.4970 cl         1 YP8      -0.212000
     52 C26          6.6930    18.4330    21.0130 c3         1 YP8       0.071900
@<TRIPOS>BOND
     1     1    14 1   
     2     1    22 2   
     3     1    23 1   
     4     2     3 ar  
     5     2    12 ar  
     6     2    31 1   
     7     3     4 ar  
     8     3     7 1   
     9     4     5 ar  
    10     4    32 1   
    11     5     6 ar  
    12     5    33 1   
    13     6    12 ar  
    14     6    51 1   
    15     7     8 1   
    16     7    26 2   
    17     8     9 2   
    18     8    34 1   
    19     9    25 1   
    20     9    35 1   
    21    10    11 ar  
    22    10    14 1   
    23    10    19 ar  
    24    11    16 ar  
    25    11    39 1   
    26    12    15 1   
    27    13    23 1   
    28    13    24 2   
    29    13    29 1   
    30    14    40 1   
    31    14    41 1   
    32    15    27 1   
    33    15    42 1   
    34    15    43 1   
    35    16    17 ar  
    36    16    44 1   
    37    17    18 ar  
    38    17    45 1   
    39    18    19 ar  
    40    18    46 1   
    41    19    47 1   
    42    20    24 1   
    43    20    27 1   
    44    20    28 2   
    45    21    22 1   
    46    21    29 1   
    47    21    30 2   
    48    22    48 1   
    49    23    49 1   
    50    25    26 1   
    51    25    52 1   
    52    27    50 1   
    53    28    29 1   
    54    36    52 1   
    55    37    52 1   
    56    38    52 1   
@<TRIPOS>SUBSTRUCTURE
     1 YP8         1 TEMP              0 ****  ****    0 ROOT
