@<TRIPOS>MOLECULE
YP8
   52    56     1     0     0
SMALL
abcg2


@<TRIPOS>ATOM
      1 C10          2.4440    25.0300    14.1550 cc         1 YP8       0.190800
      2 C15          7.4660    23.7490    17.9350 ca         1 YP8      -0.079000
      3 C16          8.1960    22.6340    17.5200 ca         1 YP8      -0.101500
      4 C17          9.4850    22.8290    17.0300 ca         1 YP8      -0.094000
      5 C18         10.0240    24.1030    16.9630 ca         1 YP8      -0.106000
      6 C19          9.2730    25.1880    17.3810 ca         1 YP8       0.124000
      7 C21          7.6120    21.2940    17.6030 cc         1 YP8       0.297500
      8 C22          8.1290    20.0760    17.1190 cc         1 YP8      -0.214000
      9 C23          7.1800    19.1420    17.4590 cd         1 YP8      -0.177000
     10 C27          1.7390    26.5730    12.3460 ca         1 YP8      -0.101300
     11 C28          2.6320    27.3950    11.6660 ca         1 YP8      -0.100000
     12 C1           7.9770    25.0370    17.8700 ca         1 YP8      -0.103300
     13 C12          4.0080    25.5200    15.8380 cc         1 YP8       0.688400
     14 C14          2.1040    25.1500    12.7010 c3         1 YP8      -0.003900
     15 C2           7.1710    26.2380    18.3210 c3         1 YP8       0.274100
     16 C29          2.2940    28.7090    11.3670 ca         1 YP8      -0.104500
     17 C30          1.0570    29.2130    11.7430 ca         1 YP8      -0.099000
     18 C31          0.1590    28.3960    12.4190 ca         1 YP8      -0.104500
     19 C32          0.4990    27.0860    12.7190 ca         1 YP8      -0.100000
     20 C4           4.8930    25.6500    17.7070 cd         1 YP8       0.800900
     21 C7           1.9230    24.4240    16.4800 c          1 YP8       0.565000
     22 C9           1.6090    24.4810    15.0720 cd         1 YP8      -0.395200
     23 N11          3.6450    25.5460    14.5420 na         1 YP8      -0.758900
     24 N13          5.1090    25.9450    16.3960 nd         1 YP8      -0.766000
     25 N24          6.1940    19.8020    18.0940 na         1 YP8       0.141800
     26 N25          6.4380    21.1000    18.1890 nd         1 YP8      -0.515800
     27 N3           5.8020    25.9640    18.6620 nu         1 YP8      -0.905100
     28 N5           3.7440    25.0700    17.9820 nc         1 YP8      -0.563800
     29 N6           3.1670    24.9920    16.7560 n          1 YP8      -0.060500
     30 O8           1.2350    23.9560    17.3630 o          1 YP8      -0.476000
     31 H40          6.4670    23.5960    18.3190 ha         1 YP8       0.137000
     32 H41         10.0850    21.9910    16.7000 ha         1 YP8       0.118000
     33 H42         11.0280    24.2480    16.5870 ha         1 YP8       0.127000
     34 H43          9.0520    19.8970    16.5940 ha         1 YP8       0.145000
     35 H44          7.1370    18.0770    17.2960 h4         1 YP8       0.153000
     36 H45          4.1110    19.7000    18.1700 h1         1 YP8       0.058700
     37 H46          4.9680    18.1810    18.4730 h1         1 YP8       0.058700
     38 H47          4.9350    19.4380    19.7180 h1         1 YP8       0.058700
     39 H48          3.5970    27.0050    11.3640 ha         1 YP8       0.112500
     40 H38          2.9540    24.8170    12.0990 hc         1 YP8       0.073200
     41 H39          1.2730    24.4790    12.4840 hc         1 YP8       0.073200
     42 H33          7.6450    26.6820    19.1980 h1         1 YP8       0.075700
     43 H34          7.1970    27.0050    17.5460 h1         1 YP8       0.075700
     44 H49          2.9980    29.3370    10.8370 ha         1 YP8       0.118000
     45 H50          0.7920    30.2350    11.5080 ha         1 YP8       0.118000
     46 H51         -0.8100    28.7800    12.7120 ha         1 YP8       0.118000
     47 H52         -0.2070    26.4540    13.2460 ha         1 YP8       0.112500
     48 H36          0.6620    24.0720    14.7530 ha         1 YP8       0.220000
     49 H37          4.2890    25.9380    13.8680 hn         1 YP8       0.537000
     50 H35          5.6260    25.5760    19.5760 hn         1 YP8       0.495000
     51 CL20         9.9810    26.7710    17.2930 cl         1 YP8      -0.212000
     52 C26          4.9810    19.2530    18.6470 c3         1 YP8       0.071900
@<TRIPOS>BOND
     1     1    14 1   
     2     1    22 2   
     3     1    23 1   
     4     2     3 ar  
     5     2    12 ar  
     6     2    31 1   
     7     3     4 ar  
     8     3     7 1   
     9     4     5 ar  
    10     4    32 1   
    11     5     6 ar  
    12     5    33 1   
    13     6    12 ar  
    14     6    51 1   
    15     7     8 1   
    16     7    26 2   
    17     8     9 2   
    18     8    34 1   
    19     9    25 1   
    20     9    35 1   
    21    10    11 ar  
    22    10    14 1   
    23    10    19 ar  
    24    11    16 ar  
    25    11    39 1   
    26    12    15 1   
    27    13    23 1   
    28    13    24 2   
    29    13    29 1   
    30    14    40 1   
    31    14    41 1   
    32    15    27 1   
    33    15    42 1   
    34    15    43 1   
    35    16    17 ar  
    36    16    44 1   
    37    17    18 ar  
    38    17    45 1   
    39    18    19 ar  
    40    18    46 1   
    41    19    47 1   
    42    20    24 1   
    43    20    27 1   
    44    20    28 2   
    45    21    22 1   
    46    21    29 1   
    47    21    30 2   
    48    22    48 1   
    49    23    49 1   
    50    25    26 1   
    51    25    52 1   
    52    27    50 1   
    53    28    29 1   
    54    36    52 1   
    55    37    52 1   
    56    38    52 1   
@<TRIPOS>SUBSTRUCTURE
     1 YP8         1 TEMP              0 ****  ****    0 ROOT
