@<TRIPOS>MOLECULE
YPA
   54    57     1     0     0
SMALL
bcc


@<TRIPOS>ATOM
      1 C1           3.3080    -1.2390     5.4840 ca         1 YPA      -0.168000
      2 C2           2.0370    -1.3130     6.0260 ca         1 YPA      -0.073000
      3 C3           0.9960    -0.6340     5.3970 cp         1 YPA      -0.087500
      4 C4           1.2530     0.1130     4.2310 ca         1 YPA       0.003800
      5 C5           2.5280     0.1890     3.6790 ca         1 YPA      -0.156000
      6 C6           3.5460    -0.4940     4.3230 ca         1 YPA      -0.101000
      7 C11         -0.4120    -0.4980     5.6670 cp         1 YPA      -0.087500
      8 C12         -0.9360     0.3230     4.6490 ca         1 YPA       0.003800
      9 N13          0.0820     0.6960     3.8010 na         1 YPA      -0.069300
     10 C14         -1.2540    -0.9910     6.6600 ca         1 YPA      -0.073000
     11 C15         -2.5990    -0.6630     6.6220 ca         1 YPA      -0.168000
     12 C16         -3.1050     0.1490     5.6010 ca         1 YPA      -0.101000
     13 C17         -2.2880     0.6530     4.6020 ca         1 YPA      -0.156000
     14 C22         -0.0630     1.4900     2.6090 c3         1 YPA       0.047300
     15 C23         -0.3370     0.6160     1.3940 c3         1 YPA       0.120400
     16 O26         -0.4540     1.4820     0.2870 os         1 YPA      -0.338900
     17 C29         -0.6730     0.9490    -0.9360 ca         1 YPA       0.106100
     18 C30         -0.7650     1.8500    -1.9980 ca         1 YPA      -0.194000
     19 C31         -0.9830     1.3910    -3.2840 ca         1 YPA      -0.091000
     20 C32         -1.1270     0.0300    -3.5580 ca         1 YPA      -0.068300
     21 C33         -1.0360    -0.8500    -2.4880 ca         1 YPA      -0.091000
     22 C34         -0.8120    -0.4110    -1.1860 ca         1 YPA      -0.194000
     23 C39         -1.3320    -0.4750    -4.9570 c3         1 YPA      -0.023100
     24 C40         -0.0150    -0.7010    -5.7050 c3         1 YPA       0.013100
     25 C43         -0.2910    -1.3810    -7.0670 c          1 YPA       0.908600
     26 O44         -0.6690    -2.5690    -6.9900 o          1 YPA      -0.828800
     27 O45         -0.1410    -0.7060    -8.0990 o          1 YPA      -0.828800
     28 O47          0.6320     0.5390    -5.8000 os         1 YPA      -0.418600
     29 C49          2.0050     0.4600    -6.0860 c3         1 YPA       0.155400
     30 C50          2.6090     1.8440    -5.9820 c3         1 YPA      -0.089100
     31 H1           4.1270    -1.7640     5.9570 ha         1 YPA       0.127000
     32 H2           1.8560    -1.8930     6.9230 ha         1 YPA       0.129000
     33 H5           2.7270     0.7560     2.7780 ha         1 YPA       0.141000
     34 H6           4.5480    -0.4520     3.9150 ha         1 YPA       0.128000
     35 H14         -0.8660    -1.6200     7.4510 ha         1 YPA       0.129000
     36 H15         -3.2670    -1.0400     7.3850 ha         1 YPA       0.127000
     37 H16         -4.1600     0.3910     5.5880 ha         1 YPA       0.128000
     38 H17         -2.6990     1.2750     3.8170 ha         1 YPA       0.141000
     39 H221         0.8480     2.0720     2.4590 h1         1 YPA       0.069200
     40 H222        -0.8740     2.2040     2.7540 h1         1 YPA       0.069200
     41 H231        -1.2570     0.0400     1.5450 h1         1 YPA       0.043200
     42 H232         0.4820    -0.0990     1.2510 h1         1 YPA       0.043200
     43 H30         -0.6620     2.9110    -1.8060 ha         1 YPA       0.124500
     44 H31         -1.0480     2.1100    -4.0910 ha         1 YPA       0.138500
     45 H33         -1.1450    -1.9150    -2.6610 ha         1 YPA       0.138500
     46 H34         -0.7560    -1.1440    -0.3930 ha         1 YPA       0.124500
     47 H391        -1.9470     0.2290    -5.5260 hc         1 YPA       0.060200
     48 H392        -1.8740    -1.4220    -4.9350 hc         1 YPA       0.060200
     49 H40          0.5960    -1.3960    -5.1040 h1         1 YPA       0.013700
     50 H491         2.1790     0.0510    -7.0880 h1         1 YPA       0.018700
     51 H492         2.5040    -0.2150    -5.3760 h1         1 YPA       0.018700
     52 H501         3.6780     1.8010    -6.1930 hc         1 YPA       0.024700
     53 H502         2.1570     2.5320    -6.6980 hc         1 YPA       0.024700
     54 H503         2.4790     2.2570    -4.9810 hc         1 YPA       0.024700
@<TRIPOS>BOND
     1     1     2 ar  
     2     1     6 ar  
     3     1    31 1   
     4     2     3 ar  
     5     2    32 1   
     6     3     4 ar  
     7     3     7 1   
     8     4     5 ar  
     9     4     9 1   
    10     5     6 ar  
    11     5    33 1   
    12     6    34 1   
    13     7     8 ar  
    14     7    10 ar  
    15     8     9 1   
    16     8    13 ar  
    17     9    14 1   
    18    10    11 ar  
    19    10    35 1   
    20    11    12 ar  
    21    11    36 1   
    22    12    13 ar  
    23    12    37 1   
    24    13    38 1   
    25    14    15 1   
    26    14    39 1   
    27    14    40 1   
    28    15    16 1   
    29    15    41 1   
    30    15    42 1   
    31    16    17 1   
    32    17    18 ar  
    33    17    22 ar  
    34    18    19 ar  
    35    18    43 1   
    36    19    20 ar  
    37    19    44 1   
    38    20    21 ar  
    39    20    23 1   
    40    21    22 ar  
    41    21    45 1   
    42    22    46 1   
    43    23    24 1   
    44    23    47 1   
    45    23    48 1   
    46    24    25 1   
    47    24    28 1   
    48    24    49 1   
    49    25    26 1   
    50    25    27 1   
    51    28    29 1   
    52    29    30 1   
    53    29    50 1   
    54    29    51 1   
    55    30    52 1   
    56    30    53 1   
    57    30    54 1   
@<TRIPOS>SUBSTRUCTURE
     1 YPA         1 TEMP              0 ****  ****    0 ROOT
