@<TRIPOS>MOLECULE
YPA
   54    57     1     0     0
SMALL
No Charge or Current Charge


@<TRIPOS>ATOM
      1 C1           3.4210    -1.0410     5.5650 ca         1 YPA      -0.150000
      2 C2           2.1080    -1.2410     6.0470 ca         1 YPA      -0.055000
      3 C3           1.0510    -0.5700     5.4020 cp         1 YPA      -0.087500
      4 C4           1.3140     0.2650     4.3170 ca         1 YPA       0.003800
      5 C5           2.6040     0.4790     3.8150 ca         1 YPA      -0.138000
      6 C6           3.6680    -0.1890     4.4590 ca         1 YPA      -0.083000
      7 C11         -0.3900    -0.5730     5.6440 cp         1 YPA      -0.087500
      8 C12         -0.9950     0.2600     4.7050 ca         1 YPA       0.003800
      9 N13          0.0590     0.7570     3.9210 na         1 YPA      -0.098600
     10 C14         -1.1750    -1.2470     6.5980 ca         1 YPA      -0.055000
     11 C15         -2.5740    -1.0520     6.5730 ca         1 YPA      -0.150000
     12 C16         -3.1720    -0.2020     5.6080 ca         1 YPA      -0.083000
     13 C17         -2.3790     0.4700     4.6520 ca         1 YPA      -0.138000
     14 C22         -0.1460     1.5670     2.7070 c3         1 YPA       0.076600
     15 C23         -0.3560     0.7040     1.4500 c3         1 YPA       0.143600
     16 O26         -0.5460     1.5900     0.3320 os         1 YPA      -0.362100
     17 C29         -0.7590     1.1220    -0.9470 ca         1 YPA       0.106100
     18 C30         -0.9310     2.0650    -1.9720 ca         1 YPA      -0.176000
     19 C31         -1.1520     1.6480    -3.2960 ca         1 YPA      -0.073000
     20 C32         -1.2030     0.2750    -3.6070 ca         1 YPA      -0.068300
     21 C33         -1.0300    -0.6720    -2.5800 ca         1 YPA      -0.073000
     22 C34         -0.8090    -0.2550    -1.2550 ca         1 YPA      -0.176000
     23 C39         -1.4430    -0.1850    -5.0430 c3         1 YPA      -0.023100
     24 C40         -0.1580    -0.6920    -5.7420 c3         1 YPA       0.036300
     25 C43         -0.5050    -1.3110    -7.1480 c          1 YPA       0.698000
     26 O44         -1.0040    -2.4290    -7.1690 o          1 YPA      -0.723500
     27 O45         -0.2250    -0.6970    -8.1710 o          1 YPA      -0.723500
     28 O47          0.7710     0.4290    -5.7890 os         1 YPA      -0.465000
     29 C49          2.1350     0.0820    -6.0880 c3         1 YPA       0.178600
     30 C50          2.9630     1.3770    -6.0620 c3         1 YPA      -0.089100
     31 H1           4.2530    -1.5490     6.0490 ha         1 YPA       0.109000
     32 H2           1.9170    -1.8960     6.8930 ha         1 YPA       0.111000
     33 H5           2.7850     1.1320     2.9650 ha         1 YPA       0.123000
     34 H6           4.6860    -0.0500     4.1020 ha         1 YPA       0.110000
     35 H14         -0.7160    -1.9010     7.3360 ha         1 YPA       0.111000
     36 H15         -3.2000    -1.5630     7.3010 ha         1 YPA       0.109000
     37 H16         -4.2510    -0.0670     5.6030 ha         1 YPA       0.110000
     38 H17         -2.8300     1.1210     3.9080 ha         1 YPA       0.123000
     39 H221         0.7240     2.2160     2.5600 h1         1 YPA       0.069200
     40 H222        -1.0200     2.2130     2.8540 h1         1 YPA       0.069200
     41 H231        -1.2360     0.0630     1.5920 h1         1 YPA       0.043200
     42 H232         0.5240     0.0660     1.2960 h1         1 YPA       0.043200
     43 H30         -0.8920     3.1270    -1.7400 ha         1 YPA       0.106500
     44 H31         -1.2780     2.3910    -4.0810 ha         1 YPA       0.120500
     45 H33         -1.0670    -1.7350    -2.8100 ha         1 YPA       0.120500
     46 H34         -0.6800    -1.0120    -0.4870 ha         1 YPA       0.106500
     47 H391        -1.8800     0.6230    -5.6420 hc         1 YPA       0.060200
     48 H392        -2.1860    -0.9920    -5.0420 hc         1 YPA       0.060200
     49 H40          0.2650    -1.4980    -5.1260 h1         1 YPA       0.013700
     50 H491         2.2190    -0.3840    -7.0780 h1         1 YPA       0.018700
     51 H492         2.5300    -0.6170    -5.3400 h1         1 YPA       0.018700
     52 H501         4.0150     1.1580    -6.2790 hc         1 YPA       0.024700
     53 H502         2.5990     2.0860    -6.8150 hc         1 YPA       0.024700
     54 H503         2.9080     1.8530    -5.0750 hc         1 YPA       0.024700
@<TRIPOS>BOND
     1     1     2 ar  
     2     1     6 ar  
     3     1    31 1   
     4     2     3 ar  
     5     2    32 1   
     6     3     4 ar  
     7     3     7 1   
     8     4     5 ar  
     9     4     9 1   
    10     5     6 ar  
    11     5    33 1   
    12     6    34 1   
    13     7     8 ar  
    14     7    10 ar  
    15     8     9 1   
    16     8    13 ar  
    17     9    14 1   
    18    10    11 ar  
    19    10    35 1   
    20    11    12 ar  
    21    11    36 1   
    22    12    13 ar  
    23    12    37 1   
    24    13    38 1   
    25    14    15 1   
    26    14    39 1   
    27    14    40 1   
    28    15    16 1   
    29    15    41 1   
    30    15    42 1   
    31    16    17 1   
    32    17    18 ar  
    33    17    22 ar  
    34    18    19 ar  
    35    18    43 1   
    36    19    20 ar  
    37    19    44 1   
    38    20    21 ar  
    39    20    23 1   
    40    21    22 ar  
    41    21    45 1   
    42    22    46 1   
    43    23    24 1   
    44    23    47 1   
    45    23    48 1   
    46    24    25 1   
    47    24    28 1   
    48    24    49 1   
    49    25    26 1   
    50    25    27 1   
    51    28    29 1   
    52    29    30 1   
    53    29    50 1   
    54    29    51 1   
    55    30    52 1   
    56    30    53 1   
    57    30    54 1   
@<TRIPOS>SUBSTRUCTURE
     1 YPA         1 TEMP              0 ****  ****    0 ROOT
