@<TRIPOS>MOLECULE
YPH
   80    85     1     0     0
SMALL
No Charge or Current Charge


@<TRIPOS>ATOM
      1 C38         11.9800    -1.9040     1.6510 c6         1 YPH       0.171800
      2 C39         12.2100    -3.2640     0.9540 c6         1 YPH      -0.093400
      3 C40         12.6130    -3.0590    -0.5210 c6         1 YPH       0.171300
      4 O43         12.7460    -4.3240    -1.1760 oh         1 YPH      -0.656000
      5 C41         11.5550    -2.1910    -1.2360 c6         1 YPH      -0.093400
      6 C42         11.3370    -0.8580    -0.4830 c6         1 YPH       0.171800
      7 N35         10.9570    -1.0890     0.9410 n3         1 YPH      -0.713600
      8 C36         10.6370     0.1670     1.6830 c3         1 YPH       0.170800
      9 C37          9.4500     1.0130     1.1430 c3         1 YPH       0.165600
     10 O34          8.2520     0.2100     1.1610 os         1 YPH      -0.325100
     11 C9           7.0360     0.6960     0.7290 ca         1 YPH       0.161100
     12 C8           6.8670     2.0110     0.2490 ca         1 YPH      -0.180000
     13 C7           5.6000     2.4480    -0.1790 ca         1 YPH      -0.045500
     14 C10          5.9310    -0.1670     0.7730 ca         1 YPH      -0.180000
     15 C11          4.6650     0.2690     0.3470 ca         1 YPH      -0.045500
     16 C6           4.4850     1.5850    -0.1320 ca         1 YPH      -0.080800
     17 C2           3.1740     2.0650    -0.5850 cc         1 YPH       0.090900
     18 O3           3.0170     3.2700    -1.2700 os         1 YPH      -0.278400
     19 C1           1.9610     1.4400    -0.3750 cd         1 YPH      -0.205200
     20 C5           0.9700     2.2900    -0.9670 ca         1 YPH      -0.284800
     21 C4           1.6540     3.3610    -1.4830 ca         1 YPH       0.291300
     22 N12          1.0320     4.3700    -2.1180 nb         1 YPH      -0.204000
     23 C13         -0.3150     4.2440    -2.2060 ca         1 YPH       0.182900
     24 N14         -1.0740     3.2230    -1.7270 nb         1 YPH      -0.289000
     25 C15         -0.4170     2.2290    -1.0960 ca         1 YPH       0.435900
     26 N44         -1.1460     1.1660    -0.5880 nu         1 YPH      -0.923100
     27 C16         -2.6060     0.9760    -0.6540 c3         1 YPH       0.233800
     28 C17         -3.0250    -0.3400     0.0310 c3         1 YPH      -0.045100
     29 C18         -4.5320    -0.5580    -0.0250 ca         1 YPH      -0.109300
     30 C19         -5.1110    -1.2470    -1.1050 ca         1 YPH      -0.077000
     31 C20         -6.5020    -1.4400    -1.1570 ca         1 YPH      -0.143000
     32 C23         -5.3600    -0.0620     0.9980 ca         1 YPH      -0.077000
     33 C22         -6.7510    -0.2550     0.9460 ca         1 YPH      -0.143000
     34 C21         -7.3370    -0.9490    -0.1360 ca         1 YPH      -0.005000
     35 N24         -8.7350    -1.1850    -0.2610 ns         1 YPH      -0.167000
     36 C25         -9.8170    -0.8580     0.5450 c          1 YPH       0.667100
     37 O33         -9.7300    -0.2520     1.6070 o          1 YPH      -0.599100
     38 N26        -11.0090    -1.3060    -0.0060 ns         1 YPH      -0.166000
     39 C27        -12.3620    -1.2190     0.4270 ca         1 YPH      -0.012000
     40 C28        -12.7630    -0.5820     1.6230 ca         1 YPH      -0.144500
     41 C29        -14.1220    -0.5370     1.9840 ca         1 YPH      -0.084500
     42 C30        -15.0920    -1.1250     1.1570 ca         1 YPH      -0.133000
     43 C31        -14.7030    -1.7600    -0.0330 ca         1 YPH      -0.084500
     44 C32        -13.3450    -1.8050    -0.3930 ca         1 YPH      -0.144500
     45 H1          11.6640    -2.0920     2.6880 h1         1 YPH       0.030200
     46 H2          12.9350    -1.3590     1.6980 h1         1 YPH       0.030200
     47 H3          12.9910    -3.8240     1.4840 hc         1 YPH       0.058200
     48 H4          11.2920    -3.8650     1.0140 hc         1 YPH       0.058200
     49 H5          13.5760    -2.5260    -0.5460 h1         1 YPH       0.021700
     50 H6          13.0850    -4.1400    -2.0800 ho         1 YPH       0.441000
     51 H7          11.8690    -1.9820    -2.2680 hc         1 YPH       0.058200
     52 H8          10.6020    -2.7330    -1.2980 hc         1 YPH       0.058200
     53 H9          12.2580    -0.2590    -0.5370 h1         1 YPH       0.030200
     54 H10         10.5530    -0.2970    -1.0090 h1         1 YPH       0.030200
     55 H12         10.4060    -0.0790     2.7290 h1         1 YPH       0.043200
     56 H13         11.5240     0.8140     1.7060 h1         1 YPH       0.043200
     57 H14          9.3270     1.8950     1.7840 h1         1 YPH       0.036200
     58 H15          9.6730     1.3600     0.1270 h1         1 YPH       0.036200
     59 H16          7.7000     2.7060     0.1990 ha         1 YPH       0.124500
     60 H17          5.4870     3.4660    -0.5450 ha         1 YPH       0.121500
     61 H18          6.0590    -1.1820     1.1390 ha         1 YPH       0.124500
     62 H19          3.8320    -0.4280     0.3860 ha         1 YPH       0.121500
     63 H20          1.7960     0.5050     0.1520 ha         1 YPH       0.208000
     64 H21         -0.8460     5.0460    -2.7150 h5         1 YPH       0.050100
     65 H22         -0.5940     0.4460    -0.1250 hn         1 YPH       0.498000
     66 H23         -3.1180     1.8150    -0.1600 h1         1 YPH       0.062200
     67 H24         -2.9370     0.9550    -1.7020 h1         1 YPH       0.062200
     68 H25         -2.5060    -1.1770    -0.4530 hc         1 YPH       0.049700
     69 H26         -2.6860    -0.3260     1.0740 hc         1 YPH       0.049700
     70 H27         -4.4850    -1.6330    -1.9060 ha         1 YPH       0.114500
     71 H28         -6.9320    -1.9760    -2.0010 ha         1 YPH       0.127500
     72 H29         -4.9250     0.4760     1.8380 ha         1 YPH       0.114500
     73 H30         -7.3530     0.1440     1.7560 ha         1 YPH       0.127500
     74 H31         -8.9850    -1.6880    -1.1020 hn         1 YPH       0.147000
     75 H32        -10.8990    -1.7900    -0.8880 hn         1 YPH       0.146000
     76 H33        -12.0430    -0.1150     2.2880 ha         1 YPH       0.124500
     77 H34        -14.4230    -0.0440     2.9060 ha         1 YPH       0.113500
     78 H35        -16.1420    -1.0890     1.4380 ha         1 YPH       0.116000
     79 H36        -15.4530    -2.2170    -0.6760 ha         1 YPH       0.113500
     80 H37        -13.0570    -2.3010    -1.3180 ha         1 YPH       0.124500
@<TRIPOS>BOND
     1     1     2 1   
     2     1     7 1   
     3     1    45 1   
     4     1    46 1   
     5     2     3 1   
     6     2    47 1   
     7     2    48 1   
     8     3     4 1   
     9     3     5 1   
    10     3    49 1   
    11     4    50 1   
    12     5     6 1   
    13     5    51 1   
    14     5    52 1   
    15     6     7 1   
    16     6    53 1   
    17     6    54 1   
    18     7     8 1   
    19     8     9 1   
    20     8    55 1   
    21     8    56 1   
    22     9    10 1   
    23     9    57 1   
    24     9    58 1   
    25    10    11 1   
    26    11    12 ar  
    27    11    14 ar  
    28    12    13 ar  
    29    12    59 1   
    30    13    16 ar  
    31    13    60 1   
    32    14    15 ar  
    33    14    61 1   
    34    15    16 ar  
    35    15    62 1   
    36    16    17 1   
    37    17    18 1   
    38    17    19 2   
    39    18    21 1   
    40    19    20 1   
    41    19    63 1   
    42    20    21 ar  
    43    20    25 ar  
    44    21    22 ar  
    45    22    23 ar  
    46    23    24 ar  
    47    23    64 1   
    48    24    25 ar  
    49    25    26 1   
    50    26    27 1   
    51    26    65 1   
    52    27    28 1   
    53    27    66 1   
    54    27    67 1   
    55    28    29 1   
    56    28    68 1   
    57    28    69 1   
    58    29    30 ar  
    59    29    32 ar  
    60    30    31 ar  
    61    30    70 1   
    62    31    34 ar  
    63    31    71 1   
    64    32    33 ar  
    65    32    72 1   
    66    33    34 ar  
    67    33    73 1   
    68    34    35 1   
    69    35    36 1   
    70    35    74 1   
    71    36    37 2   
    72    36    38 1   
    73    38    39 1   
    74    38    75 1   
    75    39    40 ar  
    76    39    44 ar  
    77    40    41 ar  
    78    40    76 1   
    79    41    42 ar  
    80    41    77 1   
    81    42    43 ar  
    82    42    78 1   
    83    43    44 ar  
    84    43    79 1   
    85    44    80 1   
@<TRIPOS>SUBSTRUCTURE
     1 YPH         1 TEMP              0 ****  ****    0 ROOT
