@<TRIPOS>MOLECULE
YPH
   80    85     1     0     0
SMALL
bcc


@<TRIPOS>ATOM
      1 C38         12.0100    -1.5180     1.3200 c6         1 YPH       0.171800
      2 C39         12.2830    -2.7750     0.5070 c6         1 YPH      -0.093400
      3 C40         12.8280    -2.4130    -0.8620 c6         1 YPH       0.148100
      4 O43         13.0160    -3.6030    -1.6000 oh         1 YPH      -0.593800
      5 C41         11.8760    -1.4420    -1.5460 c6         1 YPH      -0.093400
      6 C42         11.6230    -0.2310    -0.6600 c6         1 YPH       0.171800
      7 N35         11.0890    -0.6330     0.6280 n3         1 YPH      -0.713600
      8 C36         10.7100     0.4960     1.4510 c3         1 YPH       0.170800
      9 C37          9.4200     1.1550     1.0140 c3         1 YPH       0.142400
     10 O34          8.3750     0.2050     1.1420 os         1 YPH      -0.301900
     11 C9           7.1230     0.5650     0.8240 ca         1 YPH       0.161100
     12 C8           6.7560     1.8200     0.3430 ca         1 YPH      -0.198000
     13 C7           5.4290     2.0870     0.0400 ca         1 YPH      -0.063500
     14 C10          6.1350    -0.4110     0.9970 ca         1 YPH      -0.198000
     15 C11          4.8210    -0.1350     0.6940 ca         1 YPH      -0.063500
     16 C6           4.4380     1.1230     0.2100 ca         1 YPH      -0.080800
     17 C2           3.0450     1.3900    -0.0950 cc         1 YPH       0.090900
     18 O3           2.7610     2.5820    -0.7060 os         1 YPH      -0.278400
     19 C1           1.9080     0.6760     0.1120 cd         1 YPH      -0.155200
     20 C5           0.8470     1.4780    -0.4100 ca         1 YPH      -0.415400
     21 C4           1.4350     2.6300    -0.8940 ca         1 YPH       0.619600
     22 N12          0.8370     3.6580    -1.4660 nb         1 YPH      -0.730000
     23 C13         -0.4740     3.4830    -1.5460 ca         1 YPH       0.708900
     24 N14         -1.1860     2.4430    -1.1310 nb         1 YPH      -0.815000
     25 C15         -0.5560     1.4140    -0.5530 ca         1 YPH       0.764200
     26 N44         -1.2730     0.3690    -0.1330 nu         1 YPH      -0.867900
     27 C16         -2.7100     0.2680    -0.2750 c3         1 YPH       0.233800
     28 C17         -3.1960    -1.0630     0.2880 c3         1 YPH      -0.045100
     29 C18         -4.6860    -1.1990     0.1510 ca         1 YPH      -0.109300
     30 C19         -5.2560    -1.8400    -0.9450 ca         1 YPH      -0.095000
     31 C20         -6.6300    -1.9300    -1.0870 ca         1 YPH      -0.161000
     32 C23         -5.5470    -0.6580     1.1000 ca         1 YPH      -0.095000
     33 C22         -6.9260    -0.7470     0.9810 ca         1 YPH      -0.161000
     34 C21         -7.4850    -1.3850    -0.1280 ca         1 YPH       0.087600
     35 N24         -8.8580    -1.5640    -0.3180 ns         1 YPH      -0.493100
     36 C25         -9.8670    -0.7710     0.1590 c          1 YPH       0.801100
     37 O33         -9.6840     0.2230     0.8370 o          1 YPH      -0.599100
     38 N26        -11.1040    -1.2240    -0.2160 ns         1 YPH      -0.492100
     39 C27        -12.3400    -0.6610     0.1120 ca         1 YPH       0.080600
     40 C28        -12.5310     0.6960     0.3760 ca         1 YPH      -0.162500
     41 C29        -13.8050     1.1700     0.6570 ca         1 YPH      -0.102500
     42 C30        -14.9030     0.3210     0.6700 ca         1 YPH      -0.151000
     43 C31        -14.7140    -1.0260     0.3940 ca         1 YPH      -0.102500
     44 C32        -13.4460    -1.5150     0.1230 ca         1 YPH      -0.162500
     45 H1          11.5710    -1.7960     2.2800 h1         1 YPH       0.030200
     46 H2          12.9670    -1.0150     1.5460 h1         1 YPH       0.030200
     47 H3          12.9930    -3.4070     1.0480 hc         1 YPH       0.058200
     48 H4          11.3540    -3.3440     0.3950 hc         1 YPH       0.058200
     49 H5          13.7900    -1.8950    -0.7180 h1         1 YPH       0.021700
     50 H6          13.3880    -3.3680    -2.4560 ho         1 YPH       0.402000
     51 H7          12.2920    -1.1090    -2.5020 hc         1 YPH       0.058200
     52 H8          10.9280    -1.9450    -1.7590 hc         1 YPH       0.058200
     53 H9          12.5620     0.3420    -0.5450 h1         1 YPH       0.030200
     54 H10         10.9180     0.4340    -1.1600 h1         1 YPH       0.030200
     55 H12         10.5860     0.1520     2.4810 h1         1 YPH       0.043200
     56 H13         11.4880     1.2780     1.4800 h1         1 YPH       0.043200
     57 H14          9.2310     2.0230     1.6550 h1         1 YPH       0.036200
     58 H15          9.4810     1.5190    -0.0170 h1         1 YPH       0.036200
     59 H16          7.4850     2.6060     0.2000 ha         1 YPH       0.142500
     60 H17          5.1790     3.0730    -0.3280 ha         1 YPH       0.139500
     61 H18          6.4140    -1.3890     1.3670 ha         1 YPH       0.142500
     62 H19          4.0820    -0.9140     0.8310 ha         1 YPH       0.139500
     63 H20          1.8390    -0.2900     0.5860 ha         1 YPH       0.158000
     64 H21         -1.0370     4.2870    -2.0060 h5         1 YPH       0.050100
     65 H22         -0.7850    -0.3970     0.3010 hn         1 YPH       0.442800
     66 H23         -3.2010     1.0930     0.2480 h1         1 YPH       0.062200
     67 H24         -2.9900     0.3490    -1.3290 h1         1 YPH       0.062200
     68 H25         -2.6960    -1.8820    -0.2350 hc         1 YPH       0.049700
     69 H26         -2.9100    -1.1360     1.3420 hc         1 YPH       0.049700
     70 H27         -4.6210    -2.2810    -1.7050 ha         1 YPH       0.132500
     71 H28         -7.0450    -2.4300    -1.9540 ha         1 YPH       0.145500
     72 H29         -5.1350    -0.1650     1.9730 ha         1 YPH       0.132500
     73 H30         -7.5470    -0.3320     1.7580 ha         1 YPH       0.145500
     74 H31         -9.1000    -2.2640    -1.0020 hn         1 YPH       0.313500
     75 H32        -11.1550    -2.1400    -0.6350 hn         1 YPH       0.312500
     76 H33        -11.7040     1.3870     0.3550 ha         1 YPH       0.142500
     77 H34        -13.9370     2.2250     0.8580 ha         1 YPH       0.131500
     78 H35        -15.8910     0.7040     0.8880 ha         1 YPH       0.134000
     79 H36        -15.5540    -1.7080     0.3940 ha         1 YPH       0.131500
     80 H37        -13.3090    -2.5710    -0.0790 ha         1 YPH       0.142500
@<TRIPOS>BOND
     1     1     2 1   
     2     1     7 1   
     3     1    45 1   
     4     1    46 1   
     5     2     3 1   
     6     2    47 1   
     7     2    48 1   
     8     3     4 1   
     9     3     5 1   
    10     3    49 1   
    11     4    50 1   
    12     5     6 1   
    13     5    51 1   
    14     5    52 1   
    15     6     7 1   
    16     6    53 1   
    17     6    54 1   
    18     7     8 1   
    19     8     9 1   
    20     8    55 1   
    21     8    56 1   
    22     9    10 1   
    23     9    57 1   
    24     9    58 1   
    25    10    11 1   
    26    11    12 ar  
    27    11    14 ar  
    28    12    13 ar  
    29    12    59 1   
    30    13    16 ar  
    31    13    60 1   
    32    14    15 ar  
    33    14    61 1   
    34    15    16 ar  
    35    15    62 1   
    36    16    17 1   
    37    17    18 1   
    38    17    19 2   
    39    18    21 1   
    40    19    20 1   
    41    19    63 1   
    42    20    21 ar  
    43    20    25 ar  
    44    21    22 ar  
    45    22    23 ar  
    46    23    24 ar  
    47    23    64 1   
    48    24    25 ar  
    49    25    26 1   
    50    26    27 1   
    51    26    65 1   
    52    27    28 1   
    53    27    66 1   
    54    27    67 1   
    55    28    29 1   
    56    28    68 1   
    57    28    69 1   
    58    29    30 ar  
    59    29    32 ar  
    60    30    31 ar  
    61    30    70 1   
    62    31    34 ar  
    63    31    71 1   
    64    32    33 ar  
    65    32    72 1   
    66    33    34 ar  
    67    33    73 1   
    68    34    35 1   
    69    35    36 1   
    70    35    74 1   
    71    36    37 2   
    72    36    38 1   
    73    38    39 1   
    74    38    75 1   
    75    39    40 ar  
    76    39    44 ar  
    77    40    41 ar  
    78    40    76 1   
    79    41    42 ar  
    80    41    77 1   
    81    42    43 ar  
    82    42    78 1   
    83    43    44 ar  
    84    43    79 1   
    85    44    80 1   
@<TRIPOS>SUBSTRUCTURE
     1 YPH         1 TEMP              0 ****  ****    0 ROOT
