@<TRIPOS>MOLECULE
YPK
   77    80     1     0     0
SMALL
abcg2


@<TRIPOS>ATOM
      1 C1          10.7910    32.4570   -10.5960 c3         1 YPK      -0.084600
      2 C2           9.4270    32.0410   -11.1370 c3         1 YPK       0.027500
      3 C3           9.5270    31.6450   -12.6120 c3         1 YPK      -0.084600
      4 C5           9.4360    29.9070    -9.6080 cc         1 YPK       0.410500
      5 C8           6.1880    28.9780    -9.0420 cc         1 YPK       0.411000
      6 C10          5.1810    27.0140    -7.8710 c6         1 YPK       0.254500
      7 C11          4.3990    26.4160    -9.0440 c6         1 YPK      -0.128900
      8 C12          3.2970    25.5040    -8.5200 c6         1 YPK       0.098500
      9 C14          3.1600    26.6960    -6.4190 c6         1 YPK       0.098500
     10 C15          4.2630    27.6670    -6.8350 c6         1 YPK      -0.128900
     11 O17          0.6830    27.6390    -7.2670 o          1 YPK      -0.528000
     12 C19         -0.1650    27.2340    -9.7740 c5         1 YPK       0.174300
     13 C21          0.1110    28.6570   -10.2450 c5         1 YPK      -0.124400
     14 C22         -0.9870    28.8870   -11.2750 c5         1 YPK       0.105000
     15 C24         -0.5600    26.5120   -11.0580 c5         1 YPK       0.103000
     16 C27         -2.1930    25.9330   -13.3520 c3         1 YPK      -0.154400
     17 C28         -2.9450    25.8200   -14.6700 c3         1 YPK      -0.068400
     18 C35          5.2100    30.7890   -10.3120 cd         1 YPK       0.431300
     19 C36          3.9710    31.4720   -10.8060 c3         1 YPK      -0.150400
     20 C38          7.4610    30.6780   -10.1800 cd         1 YPK       0.420500
     21 C29         -3.0910    24.3640   -15.0890 c3         1 YPK       0.164800
     22 N30         -3.7250    24.1930   -16.3850 n3         1 YPK      -0.709600
     23 C32         -3.5890    22.8290   -16.8460 c3         1 YPK       0.149100
     24 C33         -5.1170    24.5890   -16.3790 c3         1 YPK       0.149100
     25 O26         -2.5700    28.3050   -13.4430 o          1 YPK      -0.597100
     26 N23         -1.2540    27.5490   -11.7960 n          1 YPK      -0.427800
     27 O18          0.9570    26.5670    -9.2210 os         1 YPK      -0.457100
     28 N13          2.4410    26.2270    -7.5920 n          1 YPK      -0.385800
     29 N9           6.2700    27.8740    -8.2970 nu         1 YPK      -0.967200
     30 C34          5.0660    29.6360    -9.5150 cd         1 YPK      -0.345000
     31 N37          6.3720    31.3070   -10.6480 nc         1 YPK      -0.692000
     32 C4           8.8190    30.9360   -10.3290 cc         1 YPK      -0.292800
     33 N6           8.5760    29.0680    -9.0440 nd         1 YPK      -0.629100
     34 N7           7.3790    29.5470    -9.3980 na         1 YPK       0.064900
     35 H40         10.7330    32.7640    -9.5510 hc         1 YPK       0.032367
     36 H41         11.5090    31.6370   -10.6630 hc         1 YPK       0.032367
     37 H39         11.1950    33.2920   -11.1700 hc         1 YPK       0.032367
     38 H42          8.7570    32.9050   -11.0690 hc         1 YPK       0.062700
     39 H44          9.9070    32.4700   -13.2170 hc         1 YPK       0.032367
     40 H45         10.2040    30.7970   -12.7370 hc         1 YPK       0.032367
     41 H43          8.5530    31.3570   -13.0120 hc         1 YPK       0.032367
     42 H46         10.4950    29.7440    -9.4700 h4         1 YPK       0.043800
     43 H48          5.6800    26.1800    -7.3700 h1         1 YPK       0.056700
     44 H50          5.0810    25.8540    -9.6840 hc         1 YPK       0.065950
     45 H49          3.9460    27.1930    -9.6630 hc         1 YPK       0.065950
     46 H52          2.7170    25.0840    -9.3360 h1         1 YPK       0.068700
     47 H51          3.7320    24.6620    -7.9740 h1         1 YPK       0.068700
     48 H54          2.4740    27.1720    -5.7240 h1         1 YPK       0.068700
     49 H53          3.5850    25.8280    -5.9090 h1         1 YPK       0.068700
     50 H56          4.8480    27.9570    -5.9590 hc         1 YPK       0.065950
     51 H55          3.8010    28.5750    -7.2290 hc         1 YPK       0.065950
     52 H20         -1.0020    27.2230    -9.0710 h1         1 YPK       0.079700
     53 H57          1.0960    28.6990   -10.7180 hc         1 YPK       0.068200
     54 H58          0.0860    29.3880    -9.4390 hc         1 YPK       0.068200
     55 H60         -0.6760    29.5660   -12.0680 h1         1 YPK       0.062200
     56 H59         -1.8860    29.3060   -10.8150 h1         1 YPK       0.062200
     57 H61         -1.1980    25.6490   -10.8610 h1         1 YPK       0.056200
     58 H62          0.3330    26.1620   -11.5880 h1         1 YPK       0.056200
     59 H63         -2.7120    25.3610   -12.5750 hc         1 YPK       0.055200
     60 H64         -2.4170    26.3640   -15.4560 hc         1 YPK       0.064200
     61 H75          4.2200    32.2870   -11.4820 hc         1 YPK       0.055033
     62 H74          3.3210    30.7670   -11.3270 hc         1 YPK       0.055033
     63 H76          3.3980    31.8780    -9.9710 hc         1 YPK       0.055033
     64 H66         -3.6300    23.8070   -14.3020 h1         1 YPK       0.024700
     65 H65         -2.0920    23.9200   -15.1480 h1         1 YPK       0.024700
     66 H69         -4.0200    22.7260   -17.8440 h1         1 YPK       0.030367
     67 H67         -2.5350    22.5560   -16.9090 h1         1 YPK       0.030367
     68 H68         -4.0880    22.0940   -16.1950 h1         1 YPK       0.030367
     69 H70         -5.2270    25.6470   -16.1400 h1         1 YPK       0.030367
     70 H71         -5.5500    24.4370   -17.3680 h1         1 YPK       0.030367
     71 H72         -5.7230    24.0200   -15.6550 h1         1 YPK       0.030367
     72 H47          7.2070    27.5730    -8.0740 hn         1 YPK       0.528000
     73 H73          4.0760    29.2780    -9.2830 ha         1 YPK       0.134000
     74 H1          -1.2050    25.4700   -13.4420 hc         1 YPK       0.055200
     75 H2          -3.9240    26.2910   -14.5640 hc         1 YPK       0.064200
     76 C16          1.3160    26.8770    -7.9690 c          1 YPK       0.641100
     77 C25         -2.0310    27.3610   -12.8790 c          1 YPK       0.608100
@<TRIPOS>BOND
     1     1     2 1   
     2     1    35 1   
     3     1    36 1   
     4     1    37 1   
     5     2     3 1   
     6     2    32 1   
     7     2    38 1   
     8     3    39 1   
     9     3    40 1   
    10     3    41 1   
    11     4    32 1   
    12     4    33 2   
    13     4    42 1   
    14     5    29 1   
    15     5    30 2   
    16     5    34 1   
    17     6     7 1   
    18     6    10 1   
    19     6    29 1   
    20     6    43 1   
    21     7     8 1   
    22     7    44 1   
    23     7    45 1   
    24     8    28 1   
    25     8    46 1   
    26     8    47 1   
    27     9    10 1   
    28     9    28 1   
    29     9    48 1   
    30     9    49 1   
    31    10    50 1   
    32    10    51 1   
    33    11    76 2   
    34    12    13 1   
    35    12    15 1   
    36    12    27 1   
    37    12    52 1   
    38    13    14 1   
    39    13    53 1   
    40    13    54 1   
    41    14    26 1   
    42    14    55 1   
    43    14    56 1   
    44    15    26 1   
    45    15    57 1   
    46    15    58 1   
    47    16    17 1   
    48    16    59 1   
    49    16    74 1   
    50    16    77 1   
    51    17    21 1   
    52    17    60 1   
    53    17    75 1   
    54    18    19 1   
    55    18    30 1   
    56    18    31 2   
    57    19    61 1   
    58    19    62 1   
    59    19    63 1   
    60    20    31 1   
    61    20    32 2   
    62    20    34 1   
    63    21    22 1   
    64    21    64 1   
    65    21    65 1   
    66    22    23 1   
    67    22    24 1   
    68    23    66 1   
    69    23    67 1   
    70    23    68 1   
    71    24    69 1   
    72    24    70 1   
    73    24    71 1   
    74    25    77 2   
    75    26    77 1   
    76    27    76 1   
    77    28    76 1   
    78    29    72 1   
    79    30    73 1   
    80    33    34 1   
@<TRIPOS>SUBSTRUCTURE
     1 YPK         1 TEMP              0 ****  ****    0 ROOT
