@<TRIPOS>MOLECULE
YPK
   77    80     1     0     0
SMALL
No Charge or Current Charge


@<TRIPOS>ATOM
      1 C1          10.4950    32.8450   -10.6740 c3         1 YPK      -0.084600
      2 C2           9.5540    31.9300   -11.4840 c3         1 YPK       0.027500
      3 C3          10.2700    31.3060   -12.7000 c3         1 YPK      -0.084600
      4 C5           9.6260    29.8630    -9.9210 cc         1 YPK       0.410500
      5 C8           6.3710    29.0420    -8.9450 cc         1 YPK       0.411000
      6 C10          5.3090    27.0440    -7.7200 c6         1 YPK       0.254500
      7 C11          4.5260    26.5100    -8.9490 c6         1 YPK      -0.128900
      8 C12          3.3520    25.6150    -8.4940 c6         1 YPK       0.098500
      9 C14          3.2100    26.7680    -6.3030 c6         1 YPK       0.098500
     10 C15          4.3870    27.7040    -6.6620 c6         1 YPK      -0.128900
     11 O17          0.5430    27.5230    -7.0650 o          1 YPK      -0.528000
     12 C19         -0.4620    27.0390    -9.5370 c5         1 YPK       0.174300
     13 C21         -0.2040    28.5050    -9.9770 c5         1 YPK      -0.124400
     14 C22         -1.4120    28.7670   -10.9120 c5         1 YPK       0.105000
     15 C24         -0.8490    26.3640   -10.8820 c5         1 YPK       0.103000
     16 C27         -2.3850    25.8830   -13.3850 c3         1 YPK      -0.154400
     17 C28         -3.1580    25.7780   -14.7240 c3         1 YPK      -0.068400
     18 C35          5.3560    30.8850   -10.2220 cd         1 YPK       0.431300
     19 C36          4.1570    31.6680   -10.6750 c3         1 YPK      -0.150400
     20 C38          7.6250    30.6510   -10.2990 cd         1 YPK       0.420500
     21 C29         -3.1650    24.3440   -15.3010 c3         1 YPK       0.164800
     22 N30         -3.7600    24.2170   -16.6560 n3         1 YPK      -0.709600
     23 C32         -3.5180    22.8810   -17.2440 c3         1 YPK       0.149100
     24 C33         -5.1930    24.5960   -16.7210 c3         1 YPK       0.149100
     25 O26         -2.9340    28.2350   -13.2370 o          1 YPK      -0.597100
     26 N23         -1.5520    27.4610   -11.5890 n          1 YPK      -0.427800
     27 O18          0.7890    26.4560    -9.0910 os         1 YPK      -0.457100
     28 N13          2.4910    26.3590    -7.5350 n          1 YPK      -0.385800
     29 N9           6.4150    27.9390    -8.1070 nu         1 YPK      -0.967200
     30 C34          5.2540    29.7560    -9.3490 cd         1 YPK      -0.345000
     31 N37          6.5290    31.2890   -10.6630 nc         1 YPK      -0.692000
     32 C4           8.9260    30.8720   -10.6110 cc         1 YPK      -0.292800
     33 N6           8.8730    29.0360    -9.2110 nd         1 YPK      -0.629100
     34 N7           7.5820    29.5410    -9.4510 na         1 YPK       0.064900
     35 H40          9.9560    33.3040    -9.8360 hc         1 YPK       0.032367
     36 H41         11.3420    32.2780   -10.2690 hc         1 YPK       0.032367
     37 H39         10.8900    33.6500   -11.3050 hc         1 YPK       0.032367
     38 H42          8.7530    32.5690   -11.8810 hc         1 YPK       0.062700
     39 H44         10.6620    32.0880   -13.3620 hc         1 YPK       0.032367
     40 H45         11.1080    30.6740   -12.3810 hc         1 YPK       0.032367
     41 H43          9.5740    30.6880   -13.2800 hc         1 YPK       0.032367
     42 H46         10.6970    29.7060    -9.9210 h4         1 YPK       0.043800
     43 H48          5.7510    26.1600    -7.2320 h1         1 YPK       0.056700
     44 H50          5.1980    25.9360    -9.6010 hc         1 YPK       0.065950
     45 H49          4.1230    27.3260    -9.5590 hc         1 YPK       0.065950
     46 H52          2.7890    25.2660    -9.3710 h1         1 YPK       0.068700
     47 H51          3.7470    24.7180    -7.9950 h1         1 YPK       0.068700
     48 H54          2.5330    27.2750    -5.6010 h1         1 YPK       0.068700
     49 H53          3.5910    25.8700    -5.7950 h1         1 YPK       0.068700
     50 H56          4.9640    27.9340    -5.7560 hc         1 YPK       0.065950
     51 H55          3.9850    28.6570    -7.0210 hc         1 YPK       0.065950
     52 H20         -1.2570    26.9380    -8.7840 h1         1 YPK       0.079700
     53 H57          0.7430    28.5980   -10.5230 hc         1 YPK       0.068200
     54 H58         -0.1740    29.2080    -9.1380 hc         1 YPK       0.068200
     55 H60         -1.2140    29.5860   -11.6160 h1         1 YPK       0.062200
     56 H59         -2.3200    29.0080   -10.3430 h1         1 YPK       0.062200
     57 H61         -1.4940    25.4920   -10.7160 h1         1 YPK       0.056200
     58 H62          0.0380    26.0450   -11.4460 h1         1 YPK       0.056200
     59 H63         -2.7930    25.1940   -12.6360 hc         1 YPK       0.055200
     60 H64         -2.7030    26.4550   -15.4580 hc         1 YPK       0.064200
     61 H75          4.1750    31.8260   -11.7590 hc         1 YPK       0.055033
     62 H74          3.2250    31.1450   -10.4320 hc         1 YPK       0.055033
     63 H76          4.1280    32.6500   -10.1890 hc         1 YPK       0.055033
     64 H66         -3.6930    23.6850   -14.5980 h1         1 YPK       0.024700
     65 H65         -2.1220    24.0000   -15.3380 h1         1 YPK       0.024700
     66 H69         -3.8930    22.8360   -18.2760 h1         1 YPK       0.030367
     67 H67         -2.4440    22.6540   -17.2670 h1         1 YPK       0.030367
     68 H68         -4.0230    22.0990   -16.6610 h1         1 YPK       0.030367
     69 H70         -5.3410    25.6460   -16.4390 h1         1 YPK       0.030367
     70 H71         -5.5780    24.4740   -17.7420 h1         1 YPK       0.030367
     71 H72         -5.7950    23.9670   -16.0510 h1         1 YPK       0.030367
     72 H47          7.3750    27.6100    -7.9710 hn         1 YPK       0.528000
     73 H73          4.2710    29.4710    -9.0080 ha         1 YPK       0.134000
     74 H1          -1.3580    25.5120   -13.4820 hc         1 YPK       0.055200
     75 H2          -4.1890    26.1170   -14.5630 hc         1 YPK       0.064200
     76 C16          1.2000    26.8400    -7.8380 c          1 YPK       0.641100
     77 C25         -2.3300    27.2870   -12.7510 c          1 YPK       0.608100
@<TRIPOS>BOND
     1     1     2 1   
     2     1    35 1   
     3     1    36 1   
     4     1    37 1   
     5     2     3 1   
     6     2    32 1   
     7     2    38 1   
     8     3    39 1   
     9     3    40 1   
    10     3    41 1   
    11     4    32 1   
    12     4    33 2   
    13     4    42 1   
    14     5    29 1   
    15     5    30 2   
    16     5    34 1   
    17     6     7 1   
    18     6    10 1   
    19     6    29 1   
    20     6    43 1   
    21     7     8 1   
    22     7    44 1   
    23     7    45 1   
    24     8    28 1   
    25     8    46 1   
    26     8    47 1   
    27     9    10 1   
    28     9    28 1   
    29     9    48 1   
    30     9    49 1   
    31    10    50 1   
    32    10    51 1   
    33    11    76 2   
    34    12    13 1   
    35    12    15 1   
    36    12    27 1   
    37    12    52 1   
    38    13    14 1   
    39    13    53 1   
    40    13    54 1   
    41    14    26 1   
    42    14    55 1   
    43    14    56 1   
    44    15    26 1   
    45    15    57 1   
    46    15    58 1   
    47    16    17 1   
    48    16    59 1   
    49    16    74 1   
    50    16    77 1   
    51    17    21 1   
    52    17    60 1   
    53    17    75 1   
    54    18    19 1   
    55    18    30 1   
    56    18    31 2   
    57    19    61 1   
    58    19    62 1   
    59    19    63 1   
    60    20    31 1   
    61    20    32 2   
    62    20    34 1   
    63    21    22 1   
    64    21    64 1   
    65    21    65 1   
    66    22    23 1   
    67    22    24 1   
    68    23    66 1   
    69    23    67 1   
    70    23    68 1   
    71    24    69 1   
    72    24    70 1   
    73    24    71 1   
    74    25    77 2   
    75    26    77 1   
    76    27    76 1   
    77    28    76 1   
    78    29    72 1   
    79    30    73 1   
    80    33    34 1   
@<TRIPOS>SUBSTRUCTURE
     1 YPK         1 TEMP              0 ****  ****    0 ROOT
