@<TRIPOS>MOLECULE
YPL
   40    42     1     0     0
SMALL
abcg2


@<TRIPOS>ATOM
      1 C10          8.3490    11.4070    23.2560 ca         1 YPL      -0.105000
      2 C11          9.7280    11.4480    23.0460 ca         1 YPL       0.020000
      3 C13         10.6570    11.5760    24.1660 cc         1 YPL      -0.151000
      4 C17         10.3720    11.8590    25.5180 cc         1 YPL       0.255900
      5 C20         13.1120    14.6070    18.2380 ca         1 YPL       0.002000
      6 C21         14.3930    15.1020    18.0880 ca         1 YPL      -0.066900
      7 C23         15.4770    14.4180    18.6190 ca         1 YPL      -0.023000
      8 C24         15.2620    13.2380    19.3040 ca         1 YPL      -0.217000
      9 C12         10.2020    11.3720    21.7330 ca         1 YPL      -0.101000
     10 C14         12.0370    11.4590    24.1510 cd         1 YPL      -0.159000
     11 C2          13.9760    12.7210    19.4550 ca         1 YPL       0.173100
     12 C3          12.8840    13.4040    18.9040 ca         1 YPL      -0.182600
     13 C4          11.4500    12.9800    19.0220 c          1 YPL       0.619700
     14 C7           9.3390    11.2680    20.6520 ca         1 YPL      -0.095300
     15 C8           7.9660    11.2380    20.8830 ca         1 YPL      -0.106000
     16 C9           7.4790    11.3040    22.1800 ca         1 YPL      -0.104000
     17 N15         12.4660    11.6650    25.4050 na         1 YPL       0.131800
     18 N16         11.4690    11.9110    26.2490 nd         1 YPL      -0.526800
     19 N5          11.1920    11.6620    19.0470 ns         1 YPL      -0.493900
     20 O19         10.5620    13.8200    19.0470 o          1 YPL      -0.592100
     21 BR22        14.6690    16.7250    17.1630 br         1 YPL      -0.083100
     22 H31          7.9460    11.4540    24.2590 ha         1 YPL       0.112000
     23 H34          9.4110    12.0360    25.9780 h4         1 YPL       0.039100
     24 H35         13.9540    10.8790    26.6400 h1         1 YPL       0.055033
     25 H36         14.4900    11.4300    25.0460 h1         1 YPL       0.055033
     26 H37         14.0950    12.6140    26.3000 h1         1 YPL       0.055033
     27 H38         12.2640    15.1430    17.8340 ha         1 YPL       0.156000
     28 H39         16.4860    14.7940    18.5120 ha         1 YPL       0.132000
     29 H40         16.1080    12.7110    19.7320 ha         1 YPL       0.118000
     30 H32         11.2690    11.4090    21.5540 ha         1 YPL       0.111000
     31 H33         12.7280    11.2460    23.3510 h4         1 YPL       0.150000
     32 H27          9.1670    11.6460    18.5510 h1         1 YPL       0.059200
     33 H28          9.8770    10.0990    18.9460 h1         1 YPL       0.059200
     34 H29          7.2780    11.1680    20.0490 ha         1 YPL       0.111000
     35 H30          6.4110    11.2800    22.3560 ha         1 YPL       0.112000
     36 H26         11.9520    11.0030    19.0440 hn         1 YPL       0.326500
     37 H25         14.5830    11.2060    20.4600 ho         1 YPL       0.475000
     38 C18         13.8280    11.6470    25.8790 c3         1 YPL       0.074900
     39 C6           9.8580    11.1510    19.2360 c3         1 YPL       0.154300
     40 O1          13.7560    11.5850    20.1370 oh         1 YPL      -0.545100
@<TRIPOS>BOND
     1     1     2 ar  
     2     1    16 ar  
     3     1    22 1   
     4     2     3 1   
     5     2     9 ar  
     6     3     4 1   
     7     3    10 2   
     8     4    18 2   
     9     4    23 1   
    10     5     6 ar  
    11     5    12 ar  
    12     5    27 1   
    13     6     7 ar  
    14     6    21 1   
    15     7     8 ar  
    16     7    28 1   
    17     8    11 ar  
    18     8    29 1   
    19     9    14 ar  
    20     9    30 1   
    21    10    17 1   
    22    10    31 1   
    23    11    12 ar  
    24    11    40 1   
    25    12    13 1   
    26    13    19 1   
    27    13    20 2   
    28    14    15 ar  
    29    14    39 1   
    30    15    16 ar  
    31    15    34 1   
    32    16    35 1   
    33    17    18 1   
    34    17    38 1   
    35    19    36 1   
    36    19    39 1   
    37    24    38 1   
    38    25    38 1   
    39    26    38 1   
    40    32    39 1   
    41    33    39 1   
    42    37    40 1   
@<TRIPOS>SUBSTRUCTURE
     1 YPL         1 TEMP              0 ****  ****    0 ROOT
