@<TRIPOS>MOLECULE
YPL
   40    42     1     0     0
SMALL
No Charge or Current Charge


@<TRIPOS>ATOM
      1 C10          8.7920    12.4420    23.3550 ca         1 YPL      -0.105000
      2 C11          9.9450    11.6390    23.4850 ca         1 YPL       0.020000
      3 C13         10.5020    11.3770    24.8200 cc         1 YPL      -0.151000
      4 C17         10.0670    11.8090    26.0840 cc         1 YPL       0.255900
      5 C20         12.6470    14.4980    17.0580 ca         1 YPL       0.002000
      6 C21         13.7290    15.3080    16.6790 ca         1 YPL      -0.066900
      7 C23         14.9910    15.1160    17.2540 ca         1 YPL      -0.023000
      8 C24         15.1670    14.1070    18.2120 ca         1 YPL      -0.217000
      9 C12         10.5340    11.1070    22.3150 ca         1 YPL      -0.101000
     10 C14         11.6130    10.6130    25.0360 cd         1 YPL      -0.159000
     11 C2          14.0920    13.2890    18.6010 ca         1 YPL       0.173100
     12 C3          12.8030    13.4740    18.0250 ca         1 YPL      -0.182600
     13 C4          11.5750    12.6490    18.3720 c          1 YPL       0.619700
     14 C7           9.9850    11.3700    21.0440 ca         1 YPL      -0.095300
     15 C8           8.8370    12.1750    20.9370 ca         1 YPL      -0.106000
     16 C9           8.2430    12.7090    22.0900 ca         1 YPL      -0.104000
     17 N15         11.7840    10.6290    26.4250 na         1 YPL       0.131800
     18 N16         10.8150    11.3790    27.0810 nd         1 YPL      -0.526800
     19 N5          11.7120    11.6550    19.3090 ns         1 YPL      -0.493900
     20 O19         10.4930    12.8560    17.8370 o          1 YPL      -0.592100
     21 Br22        13.4790    16.6820    15.3710 br         1 YPL      -0.083100
     22 H31          8.3150    12.8660    24.2340 ha         1 YPL       0.112000
     23 H34          9.2140    12.4340    26.3110 h4         1 YPL       0.039100
     24 H35         12.4010     9.2430    27.8860 h1         1 YPL       0.055033
     25 H36         13.5040     9.4100    26.4880 h1         1 YPL       0.055033
     26 H37         13.4370    10.6950    27.7300 h1         1 YPL       0.055033
     27 H38         11.6800    14.6740    16.5930 ha         1 YPL       0.156000
     28 H39         15.8290    15.7440    16.9590 ha         1 YPL       0.132000
     29 H40         16.1520    13.9670    18.6520 ha         1 YPL       0.118000
     30 H32         11.4230    10.4880    22.3790 ha         1 YPL       0.111000
     31 H33         12.2760    10.0780    24.3670 h4         1 YPL       0.150000
     32 H27          9.8840    10.6560    19.0070 h1         1 YPL       0.059200
     33 H28         11.0570     9.8050    20.0230 h1         1 YPL       0.059200
     34 H29          8.4080    12.3890    19.9610 ha         1 YPL       0.111000
     35 H30          7.3550    13.3310    22.0050 ha         1 YPL       0.112000
     36 H26         12.6390    11.5550    19.7070 hn         1 YPL       0.326500
     37 H25         15.2930    12.3890    19.7870 ho         1 YPL       0.475000
     38 C18         12.8480     9.9520    27.1790 c3         1 YPL       0.074900
     39 C6          10.6360    10.7940    19.7950 c3         1 YPL       0.154300
     40 O1          14.3450    12.3320    19.5380 oh         1 YPL      -0.545100
@<TRIPOS>BOND
     1     1     2 ar  
     2     1    16 ar  
     3     1    22 1   
     4     2     3 1   
     5     2     9 ar  
     6     3     4 1   
     7     3    10 2   
     8     4    18 2   
     9     4    23 1   
    10     5     6 ar  
    11     5    12 ar  
    12     5    27 1   
    13     6     7 ar  
    14     6    21 1   
    15     7     8 ar  
    16     7    28 1   
    17     8    11 ar  
    18     8    29 1   
    19     9    14 ar  
    20     9    30 1   
    21    10    17 1   
    22    10    31 1   
    23    11    12 ar  
    24    11    40 1   
    25    12    13 1   
    26    13    19 1   
    27    13    20 2   
    28    14    15 ar  
    29    14    39 1   
    30    15    16 ar  
    31    15    34 1   
    32    16    35 1   
    33    17    18 1   
    34    17    38 1   
    35    19    36 1   
    36    19    39 1   
    37    24    38 1   
    38    25    38 1   
    39    26    38 1   
    40    32    39 1   
    41    33    39 1   
    42    37    40 1   
@<TRIPOS>SUBSTRUCTURE
     1 YPL         1 TEMP              0 ****  ****    0 ROOT
