@<TRIPOS>MOLECULE
YPM
   68    73     1     0     0
SMALL
No Charge or Current Charge


@<TRIPOS>ATOM
      1 C10        -41.9600    17.8050    -8.1580 c6         1 YPM      -0.088900
      2 C11        -45.3400    14.3410    -7.2390 c6         1 YPM      -0.125000
      3 C02        -45.1050    15.8790    -7.3700 c          1 YPM       0.606100
      4 C04        -43.3760    17.7230    -7.5300 c6         1 YPM       0.109700
      5 C05        -43.3660    18.3830    -6.1250 c6         1 YPM      -0.088900
      6 C06        -42.8730    19.8510    -6.1920 c6         1 YPM      -0.072900
      7 C07        -41.4670    19.9400    -6.8400 c6         1 YPM       0.161500
      8 C09        -41.4600    19.2700    -8.2380 c6         1 YPM      -0.072900
      9 C12        -46.1460    13.8160    -8.4680 c6         1 YPM      -0.052900
     10 C13        -46.4430    12.2880    -8.3530 c6         1 YPM       0.002300
     11 C14        -45.0860    11.5240    -8.2860 c6         1 YPM      -0.063900
     12 C15        -47.2710    11.8050    -9.6350 ca         1 YPM      -0.065300
     13 C16        -48.5750    11.2190    -9.5440 ca         1 YPM      -0.108250
     14 C17        -49.2760    10.8070   -10.6900 ca         1 YPM      -0.109750
     15 C18        -48.7100    10.9610   -11.9620 ca         1 YPM      -0.110500
     16 C19        -47.4370    11.5310   -12.0920 ca         1 YPM      -0.109750
     17 C20        -46.7280    11.9460   -10.9520 ca         1 YPM      -0.108250
     18 C21        -47.2020    12.0410    -7.0040 c6         1 YPM      -0.061400
     19 C22        -46.3820    12.5000    -5.7460 c6         1 YPM       0.002300
     20 C23        -45.0250    11.7290    -5.7600 c6         1 YPM      -0.063900
     21 C24        -44.2520    12.0090    -7.0740 c6         1 YPM      -0.060700
     22 C25        -43.9880    13.5340    -7.2040 c6         1 YPM      -0.063400
     23 C26        -47.1230    12.2450    -4.3980 ca         1 YPM      -0.065300
     24 C27        -48.4150    11.6620    -4.3330 ca         1 YPM      -0.108250
     25 C28        -49.0490    11.4500    -3.0960 ca         1 YPM      -0.109750
     26 C29        -48.4110    11.8140    -1.9020 ca         1 YPM      -0.110500
     27 C30        -47.1340    12.3920    -1.9460 ca         1 YPM      -0.109750
     28 C31        -46.4980    12.6050    -3.1800 ca         1 YPM      -0.108250
     29 C32        -46.0850    14.0280    -5.9040 c6         1 YPM      -0.052900
     30 N03        -43.8010    16.3230    -7.4360 ns         1 YPM      -0.506900
     31 N08        -41.0270    21.3420    -6.9340 n8         1 YPM      -0.996200
     32 O01        -46.0410    16.6660    -7.4160 o          1 YPM      -0.602100
     33 H1         -41.9750    17.3660    -9.1650 hc         1 YPM       0.044450
     34 H2         -41.2520    17.2080    -7.5660 hc         1 YPM       0.044450
     35 H3         -44.0830    18.2630    -8.1780 h1         1 YPM       0.081700
     36 H4         -44.3750    18.3560    -5.6920 hc         1 YPM       0.044450
     37 H5         -42.7200    17.8080    -5.4470 hc         1 YPM       0.044450
     38 H6         -42.8490    20.2770    -5.1800 hc         1 YPM       0.050700
     39 H7         -43.5900    20.4520    -6.7680 hc         1 YPM       0.050700
     40 H8         -40.7450    19.4190    -6.1940 h1         1 YPM       0.011700
     41 H9         -40.4460    19.2890    -8.6600 hc         1 YPM       0.050700
     42 H10        -42.0980    19.8380    -8.9300 hc         1 YPM       0.050700
     43 H11        -45.5920    14.0330    -9.3910 hc         1 YPM       0.055200
     44 H12        -47.0960    14.3630    -8.5510 hc         1 YPM       0.055200
     45 H13        -45.2660    10.4420    -8.2120 hc         1 YPM       0.045950
     46 H14        -44.5100    11.6750    -9.2090 hc         1 YPM       0.045950
     47 H15        -49.0560    11.0790    -8.5810 ha         1 YPM       0.109500
     48 H16        -50.2650    10.3650   -10.5890 ha         1 YPM       0.111250
     49 H17        -49.2570    10.6400   -12.8460 ha         1 YPM       0.112500
     50 H18        -46.9950    11.6520   -13.0790 ha         1 YPM       0.111250
     51 H19        -45.7430    12.3850   -11.0870 ha         1 YPM       0.109500
     52 H20        -48.1620    12.5760    -7.0280 hc         1 YPM       0.048200
     53 H21        -47.4310    10.9700    -6.9140 hc         1 YPM       0.048200
     54 H22        -45.2040    10.6500    -5.6520 hc         1 YPM       0.045950
     55 H23        -44.3980    12.0200    -4.9070 hc         1 YPM       0.045950
     56 H24        -43.2940    11.4720    -7.0540 hc         1 YPM       0.052700
     57 H25        -43.4040    13.7200    -8.1180 hc         1 YPM       0.041700
     58 H26        -43.3630    13.8630    -6.3610 hc         1 YPM       0.041700
     59 H27        -48.9500    11.3640    -5.2290 ha         1 YPM       0.109500
     60 H28        -50.0390    11.0020    -3.0660 ha         1 YPM       0.111250
     61 H29        -48.9040    11.6490    -0.9460 ha         1 YPM       0.112500
     62 H30        -46.6360    12.6770    -1.0220 ha         1 YPM       0.111250
     63 H31        -45.5090    13.0560    -3.1800 ha         1 YPM       0.109500
     64 H32        -45.4880    14.3980    -5.0600 hc         1 YPM       0.055200
     65 H33        -47.0320    14.5840    -5.8680 hc         1 YPM       0.055200
     66 H34        -43.0830    15.6120    -7.3950 hn         1 YPM       0.307500
     67 H35        -40.9510    21.7260    -5.9860 hn         1 YPM       0.393500
     68 H36        -40.0590    21.3590    -7.2760 hn         1 YPM       0.393500
@<TRIPOS>BOND
     1     1     4 1   
     2     1     8 1   
     3     1    33 1   
     4     1    34 1   
     5     2     3 1   
     6     2     9 1   
     7     2    22 1   
     8     2    29 1   
     9     3    30 1   
    10     3    32 2   
    11     4     5 1   
    12     4    30 1   
    13     4    35 1   
    14     5     6 1   
    15     5    36 1   
    16     5    37 1   
    17     6     7 1   
    18     6    38 1   
    19     6    39 1   
    20     7     8 1   
    21     7    31 1   
    22     7    40 1   
    23     8    41 1   
    24     8    42 1   
    25     9    10 1   
    26     9    43 1   
    27     9    44 1   
    28    10    11 1   
    29    10    12 1   
    30    10    18 1   
    31    11    21 1   
    32    11    45 1   
    33    11    46 1   
    34    12    13 ar  
    35    12    17 ar  
    36    13    14 ar  
    37    13    47 1   
    38    14    15 ar  
    39    14    48 1   
    40    15    16 ar  
    41    15    49 1   
    42    16    17 ar  
    43    16    50 1   
    44    17    51 1   
    45    18    19 1   
    46    18    52 1   
    47    18    53 1   
    48    19    20 1   
    49    19    23 1   
    50    19    29 1   
    51    20    21 1   
    52    20    54 1   
    53    20    55 1   
    54    21    22 1   
    55    21    56 1   
    56    22    57 1   
    57    22    58 1   
    58    23    24 ar  
    59    23    28 ar  
    60    24    25 ar  
    61    24    59 1   
    62    25    26 ar  
    63    25    60 1   
    64    26    27 ar  
    65    26    61 1   
    66    27    28 ar  
    67    27    62 1   
    68    28    63 1   
    69    29    64 1   
    70    29    65 1   
    71    30    66 1   
    72    31    67 1   
    73    31    68 1   
@<TRIPOS>SUBSTRUCTURE
     1 YPM         1 TEMP              0 ****  ****    0 ROOT
