@<TRIPOS>MOLECULE
YPM
   68    73     1     0     0
SMALL
abcg2


@<TRIPOS>ATOM
      1 C10        -42.3440    17.8030    -7.9350 c6         1 YPM      -0.088900
      2 C11        -45.1800    14.2300    -7.5900 c6         1 YPM      -0.125000
      3 C02        -44.8660    15.7060    -7.8550 c          1 YPM       0.606100
      4 C04        -43.5920    17.6690    -7.0630 c6         1 YPM       0.109700
      5 C05        -43.3340    18.2280    -5.6680 c6         1 YPM      -0.088900
      6 C06        -42.8460    19.6700    -5.7380 c6         1 YPM      -0.072900
      7 C07        -41.5960    19.8050    -6.6010 c6         1 YPM       0.161500
      8 C09        -41.8690    19.2500    -7.9940 c6         1 YPM      -0.072900
      9 C12        -46.0890    13.6930    -8.6990 c6         1 YPM      -0.052900
     10 C13        -46.4280    12.2110    -8.4670 c6         1 YPM       0.002300
     11 C14        -45.1230    11.4000    -8.4150 c6         1 YPM      -0.063900
     12 C15        -47.3030    11.7100    -9.6060 ca         1 YPM      -0.065300
     13 C16        -48.5960    11.2270    -9.4160 ca         1 YPM      -0.108250
     14 C17        -49.3640    10.7750   -10.4850 ca         1 YPM      -0.109750
     15 C18        -48.8550    10.7950   -11.7730 ca         1 YPM      -0.110500
     16 C19        -47.5680    11.2750   -11.9830 ca         1 YPM      -0.109750
     17 C20        -46.8080    11.7240   -10.9140 ca         1 YPM      -0.108250
     18 C21        -47.1240    12.0870    -7.1060 c6         1 YPM      -0.061400
     19 C22        -46.2410    12.6020    -5.9640 c6         1 YPM       0.002300
     20 C23        -44.9340    11.7900    -5.9590 c6         1 YPM      -0.063900
     21 C24        -44.2260    11.9280    -7.3020 c6         1 YPM      -0.060700
     22 C25        -43.8880    13.3950    -7.5570 c6         1 YPM      -0.063400
     23 C26        -46.9280    12.4990    -4.6100 ca         1 YPM      -0.065300
     24 C27        -48.2310    12.0290    -4.4540 ca         1 YPM      -0.108250
     25 C28        -48.8300    11.9640    -3.2010 ca         1 YPM      -0.109750
     26 C29        -48.1390    12.3670    -2.0690 ca         1 YPM      -0.110500
     27 C30        -46.8390    12.8360    -2.2050 ca         1 YPM      -0.109750
     28 C31        -46.2470    12.8990    -3.4570 ca         1 YPM      -0.108250
     29 C32        -45.9060    14.0790    -6.2430 c6         1 YPM      -0.052900
     30 N03        -44.0410    16.2940    -6.9690 ns         1 YPM      -0.506900
     31 N08        -41.2060    21.2050    -6.6930 n8         1 YPM      -0.996200
     32 O01        -45.3430    16.3150    -8.8040 o          1 YPM      -0.602100
     33 H1         -42.5520    17.4320    -8.9410 hc         1 YPM       0.044450
     34 H2         -41.5530    17.1680    -7.5200 hc         1 YPM       0.044450
     35 H3         -44.3990    18.2490    -7.5210 h1         1 YPM       0.081700
     36 H4         -44.2470    18.1680    -5.0700 hc         1 YPM       0.044450
     37 H5         -42.5840    17.6090    -5.1630 hc         1 YPM       0.044450
     38 H6         -42.6480    20.0420    -4.7280 hc         1 YPM       0.050700
     39 H7         -43.6320    20.3070    -6.1580 hc         1 YPM       0.050700
     40 H8         -40.8110    19.1780    -6.1460 h1         1 YPM       0.011700
     41 H9         -40.9680    19.3220    -8.6090 hc         1 YPM       0.050700
     42 H10        -42.6300    19.8730    -8.4780 hc         1 YPM       0.050700
     43 H11        -45.6010    13.8180    -9.6690 hc         1 YPM       0.055200
     44 H12        -47.0180    14.2690    -8.7330 hc         1 YPM       0.055200
     45 H13        -45.3530    10.3430    -8.2470 hc         1 YPM       0.045950
     46 H14        -44.5940    11.4600    -9.3710 hc         1 YPM       0.045950
     47 H15        -49.0300    11.1930    -8.4260 ha         1 YPM       0.109500
     48 H16        -50.3650    10.4050   -10.3010 ha         1 YPM       0.111250
     49 H17        -49.4510    10.4410   -12.6050 ha         1 YPM       0.112500
     50 H18        -47.1530    11.2980   -12.9820 ha         1 YPM       0.111250
     51 H19        -45.8080    12.0910   -11.1100 ha         1 YPM       0.109500
     52 H20        -48.0590    12.6560    -7.1240 hc         1 YPM       0.048200
     53 H21        -47.3860    11.0400    -6.9230 hc         1 YPM       0.048200
     54 H22        -45.1580    10.7380    -5.7560 hc         1 YPM       0.045950
     55 H23        -44.2740    12.1350    -5.1580 hc         1 YPM       0.045950
     56 H24        -43.2990    11.3470    -7.2810 hc         1 YPM       0.052700
     57 H25        -43.3490    13.5000    -8.5040 hc         1 YPM       0.041700
     58 H26        -43.2140    13.7460    -6.7700 hc         1 YPM       0.041700
     59 H27        -48.8050    11.7050    -5.3110 ha         1 YPM       0.109500
     60 H28        -49.8440    11.5940    -3.1150 ha         1 YPM       0.111250
     61 H29        -48.6060    12.3170    -1.0940 ha         1 YPM       0.112500
     62 H30        -46.2820    13.1570    -1.3330 ha         1 YPM       0.111250
     63 H31        -45.2320    13.2720    -3.5290 ha         1 YPM       0.109500
     64 H32        -45.2910    14.4740    -5.4290 hc         1 YPM       0.055200
     65 H33        -46.8300    14.6670    -6.2520 hc         1 YPM       0.055200
     66 H34        -43.6380    15.7340    -6.2340 hn         1 YPM       0.307500
     67 H35        -40.9660    21.5490    -5.7710 hn         1 YPM       0.393500
     68 H36        -40.3560    21.2790    -7.2390 hn         1 YPM       0.393500
@<TRIPOS>BOND
     1     1     4 1   
     2     1     8 1   
     3     1    33 1   
     4     1    34 1   
     5     2     3 1   
     6     2     9 1   
     7     2    22 1   
     8     2    29 1   
     9     3    30 1   
    10     3    32 2   
    11     4     5 1   
    12     4    30 1   
    13     4    35 1   
    14     5     6 1   
    15     5    36 1   
    16     5    37 1   
    17     6     7 1   
    18     6    38 1   
    19     6    39 1   
    20     7     8 1   
    21     7    31 1   
    22     7    40 1   
    23     8    41 1   
    24     8    42 1   
    25     9    10 1   
    26     9    43 1   
    27     9    44 1   
    28    10    11 1   
    29    10    12 1   
    30    10    18 1   
    31    11    21 1   
    32    11    45 1   
    33    11    46 1   
    34    12    13 ar  
    35    12    17 ar  
    36    13    14 ar  
    37    13    47 1   
    38    14    15 ar  
    39    14    48 1   
    40    15    16 ar  
    41    15    49 1   
    42    16    17 ar  
    43    16    50 1   
    44    17    51 1   
    45    18    19 1   
    46    18    52 1   
    47    18    53 1   
    48    19    20 1   
    49    19    23 1   
    50    19    29 1   
    51    20    21 1   
    52    20    54 1   
    53    20    55 1   
    54    21    22 1   
    55    21    56 1   
    56    22    57 1   
    57    22    58 1   
    58    23    24 ar  
    59    23    28 ar  
    60    24    25 ar  
    61    24    59 1   
    62    25    26 ar  
    63    25    60 1   
    64    26    27 ar  
    65    26    61 1   
    66    27    28 ar  
    67    27    62 1   
    68    28    63 1   
    69    29    64 1   
    70    29    65 1   
    71    30    66 1   
    72    31    67 1   
    73    31    68 1   
@<TRIPOS>SUBSTRUCTURE
     1 YPM         1 TEMP              0 ****  ****    0 ROOT
