@<TRIPOS>MOLECULE
YPN
   19    19     1     0     0
SMALL
abcg2


@<TRIPOS>ATOM
      1 C1           2.1930    -1.2070     0.0420 ca         1 YPN      -0.055000
      2 C2           0.8710    -1.5940     0.0620 ca         1 YPN      -0.142000
      3 C3          -0.1130    -0.6020     0.0630 ca         1 YPN       0.468300
      4 N4           0.1730     0.6870     0.0470 nb         1 YPN      -0.681000
      5 C5           1.4450     1.0610     0.0260 ca         1 YPN       0.365900
      6 C6           2.4860     0.1510     0.0220 ca         1 YPN       0.047000
      7 CL7          4.1200     0.7020    -0.0050 cl         1 YPN      -0.180000
      8 S8          -1.7920    -1.1190     0.0850 ss         1 YPN      -0.377300
      9 C9          -2.6780     0.4610     0.0760 c3         1 YPN       0.052600
     10 C10         -4.1630     0.1570    -0.0020 c3         1 YPN       0.167600
     11 O11         -4.8420     1.3910     0.0240 oh         1 YPN      -0.655000
     12 H1           2.9820    -1.9460     0.0410 ha         1 YPN       0.135000
     13 H2           0.6080    -2.6430     0.0790 ha         1 YPN       0.138000
     14 H5           1.6430     2.1260     0.0120 h4         1 YPN       0.035100
     15 H91C        -2.4420     1.0140     0.9850 h1         1 YPN       0.089200
     16 H92C        -2.3600     1.0490    -0.7840 h1         1 YPN       0.089200
     17 H101        -4.3750    -0.4010    -0.9220 h1         1 YPN       0.028200
     18 H102        -4.4590    -0.4830     0.8390 h1         1 YPN       0.028200
     19 H11         -5.7730     1.2150    -0.1260 ho         1 YPN       0.445000
@<TRIPOS>BOND
     1     1     2 ar  
     2     1     6 ar  
     3     1    12 1   
     4     2     3 ar  
     5     2    13 1   
     6     3     4 ar  
     7     3     8 1   
     8     4     5 ar  
     9     5     6 ar  
    10     5    14 1   
    11     6     7 1   
    12     8     9 1   
    13     9    10 1   
    14     9    15 1   
    15     9    16 1   
    16    10    11 1   
    17    10    17 1   
    18    10    18 1   
    19    11    19 1   
@<TRIPOS>SUBSTRUCTURE
     1 YPN         1 TEMP              0 ****  ****    0 ROOT
