@<TRIPOS>MOLECULE
YPN
   19    19     1     0     0
SMALL
No Charge or Current Charge


@<TRIPOS>ATOM
      1 C1           2.2870    -1.2270     0.0560 ca         1 YPN      -0.055000
      2 C2           0.9370    -1.6210     0.0480 ca         1 YPN      -0.142000
      3 C3          -0.0700    -0.6390     0.0370 ca         1 YPN       0.468300
      4 N4           0.1990     0.6840     0.0340 nb         1 YPN      -0.681000
      5 C5           1.5020     1.0640     0.0420 ca         1 YPN       0.365900
      6 C6           2.5740     0.1470     0.0530 ca         1 YPN       0.047000
      7 Cl7          4.2450     0.7070     0.0620 cl         1 YPN      -0.180000
      8 S8          -1.7850    -1.1460     0.0280 ss         1 YPN      -0.377300
      9 C9          -2.7320     0.4500     0.0150 c3         1 YPN       0.052600
     10 C10         -4.2510     0.1900     0.0060 c3         1 YPN       0.167600
     11 O11         -4.9630     1.4340    -0.0040 oh         1 YPN      -0.655000
     12 H1           3.0870    -1.9640     0.0640 ha         1 YPN       0.135000
     13 H2           0.6690    -2.6730     0.0500 ha         1 YPN       0.138000
     14 H5           1.6930     2.1360     0.0390 h4         1 YPN       0.035100
     15 H91C        -2.4660     1.0340     0.9060 h1         1 YPN       0.089200
     16 H92C        -2.4540     1.0270    -0.8760 h1         1 YPN       0.089200
     17 H101        -4.5080    -0.4040    -0.8820 h1         1 YPN       0.028200
     18 H102        -4.5200    -0.3970     0.8940 h1         1 YPN       0.028200
     19 H11         -5.9220     1.2150    -0.0090 ho         1 YPN       0.445000
@<TRIPOS>BOND
     1     1     2 ar  
     2     1     6 ar  
     3     1    12 1   
     4     2     3 ar  
     5     2    13 1   
     6     3     4 ar  
     7     3     8 1   
     8     4     5 ar  
     9     5     6 ar  
    10     5    14 1   
    11     6     7 1   
    12     8     9 1   
    13     9    10 1   
    14     9    15 1   
    15     9    16 1   
    16    10    11 1   
    17    10    17 1   
    18    10    18 1   
    19    11    19 1   
@<TRIPOS>SUBSTRUCTURE
     1 YPN         1 TEMP              0 ****  ****    0 ROOT
