@<TRIPOS>MOLECULE
YPP
   64    66     1     0     0
SMALL
abcg2


@<TRIPOS>ATOM
      1 C           -4.3430   -16.1790    14.2560 c          1 YPP       0.715000
      2 N           -6.2700   -16.5210    12.7830 ns         1 YPP      -0.427900
      3 O           -3.9060   -16.2430    15.4160 o          1 YPP      -0.725000
      4 CA          -5.6260   -17.0120    13.9750 c3         1 YPP      -0.079300
      5 CB          -5.2100   -18.4920    13.8960 c5         1 YPP       0.380500
      6 NAE         -4.2810   -18.8410    12.8430 n7         1 YPP      -0.872400
      7 CAG         -4.9290   -19.3410    11.6460 c5         1 YPP       0.050500
      8 CAH         -5.9050   -20.4200    12.1450 c5         1 YPP       0.172000
      9 SAI         -6.6330   -19.6090    13.6350 ss         1 YPP      -0.602000
     10 CAJ         -3.9160   -19.8790    10.6040 c          1 YPP       0.729000
     11 OAK         -2.7190   -19.9450    10.9350 o          1 YPP      -0.735000
     12 OAL         -4.4070   -20.1950     9.5010 o          1 YPP      -0.735000
     13 CAM         -7.0390   -20.7130    11.1760 c3         1 YPP      -0.063100
     14 CAN         -5.2020   -21.7090    12.5540 c3         1 YPP      -0.063100
     15 CAP         -7.5800   -16.3050    12.6600 c          1 YPP       0.595100
     16 OAQ         -8.4260   -16.6190    13.4830 o          1 YPP      -0.636100
     17 CAR         -7.9880   -15.6210    11.3450 c3         1 YPP       0.068000
     18 CAS         -8.0600   -16.6530    10.2360 ca         1 YPP      -0.094300
     19 CAT         -6.9780   -16.8360     9.3830 ca         1 YPP      -0.086500
     20 CAU         -7.0290   -17.7840     8.3700 ca         1 YPP      -0.103000
     21 CAV         -8.1700   -18.5540     8.1970 ca         1 YPP      -0.110000
     22 CAW         -9.2530   -18.3790     9.0480 ca         1 YPP      -0.103000
     23 CAX         -9.1970   -17.4370    10.0660 ca         1 YPP      -0.086500
     24 NAY         -9.2470   -14.9680    11.5860 ns         1 YPP      -0.463900
     25 CAZ         -9.7380   -14.0740    10.7230 c          1 YPP       0.649100
     26 OBA         -9.1290   -13.6410     9.7640 o          1 YPP      -0.629100
     27 NBB        -11.0520   -13.5900    10.9820 n          1 YPP      -0.390400
     28 CBC        -11.4850   -12.4460    10.1780 c6         1 YPP       0.092000
     29 CBD        -12.5060   -11.6440    10.9390 c6         1 YPP       0.085000
     30 NBE        -13.6400   -12.4800    11.2830 n          1 YPP      -0.408800
     31 CBF        -13.4300   -13.7210    11.7320 c          1 YPP       0.486000
     32 OBG        -14.2880   -14.4820    12.1330 o          1 YPP      -0.514000
     33 CBH        -11.9690   -14.2250    11.7650 c          1 YPP       0.486000
     34 OBI        -11.7380   -15.1800    12.4740 o          1 YPP      -0.467000
     35 CBJ        -14.9630   -11.8800    11.3520 c3         1 YPP       0.102000
     36 CBK        -15.1930   -11.1160    12.6470 c3         1 YPP      -0.116100
     37 OXT         -3.8510   -15.5750    13.2820 o          1 YPP      -0.725000
     38 HN          -5.6360   -16.0890    12.1240 hn         1 YPP       0.334500
     39 HA          -6.3090   -16.8990    14.8200 h1         1 YPP       0.067700
     40 HB          -4.7700   -18.7280    14.8690 h2         1 YPP       0.082700
     41 HNAE        -3.6420   -18.0840    12.6360 hn         1 YPP       0.461000
     42 HAG         -5.5360   -18.5740    11.1400 h1         1 YPP       0.021700
     43 HAM         -7.7810   -21.3720    11.6320 hc         1 YPP       0.030367
     44 HAMA        -7.5430   -19.7980    10.8650 hc         1 YPP       0.030367
     45 HAMB        -6.6550   -21.2080    10.2850 hc         1 YPP       0.030367
     46 HAN         -5.9000   -22.3880    13.0450 hc         1 YPP       0.030367
     47 HANA        -4.8070   -22.2260    11.6760 hc         1 YPP       0.030367
     48 HANB        -4.3800   -21.5170    13.2410 hc         1 YPP       0.030367
     49 HAR         -7.2330   -14.8740    11.0840 h1         1 YPP       0.083700
     50 HAT         -6.0880   -16.2290     9.5040 ha         1 YPP       0.116000
     51 HAU         -6.1810   -17.9120     7.7110 ha         1 YPP       0.108000
     52 HAV         -8.2160   -19.2900     7.4040 ha         1 YPP       0.098000
     53 HAW        -10.1460   -18.9780     8.9210 ha         1 YPP       0.108000
     54 HAX        -10.0530   -17.3050    10.7170 ha         1 YPP       0.116000
     55 HNAY        -9.8330   -15.3350    12.3250 hn         1 YPP       0.374500
     56 HBC        -10.6250   -11.8170     9.9720 h1         1 YPP       0.072200
     57 HBCA       -11.8940   -12.7830     9.2230 h1         1 YPP       0.072200
     58 HBD        -12.0610   -11.1900    11.8290 h1         1 YPP       0.051700
     59 HBDA       -12.8560   -10.8340    10.3000 h1         1 YPP       0.051700
     60 HBJ        -15.0630   -11.2130    10.4950 h1         1 YPP       0.053700
     61 HBJA       -15.7070   -12.6650    11.2340 h1         1 YPP       0.053700
     62 HBK        -16.1840   -10.6620    12.6390 hc         1 YPP       0.040700
     63 HBKA       -15.1320   -11.7770    13.5110 hc         1 YPP       0.040700
     64 HBKB       -14.4630   -10.3160    12.7740 hc         1 YPP       0.040700
@<TRIPOS>BOND
     1     1     3 1   
     2     1     4 1   
     3     1    37 1   
     4     2     4 1   
     5     2    15 1   
     6     2    38 1   
     7     4     5 1   
     8     4    39 1   
     9     5     6 1   
    10     5     9 1   
    11     5    40 1   
    12     6     7 1   
    13     6    41 1   
    14     7     8 1   
    15     7    10 1   
    16     7    42 1   
    17     8     9 1   
    18     8    13 1   
    19     8    14 1   
    20    10    11 1   
    21    10    12 1   
    22    13    43 1   
    23    13    44 1   
    24    13    45 1   
    25    14    46 1   
    26    14    47 1   
    27    14    48 1   
    28    15    16 2   
    29    15    17 1   
    30    17    18 1   
    31    17    24 1   
    32    17    49 1   
    33    18    19 ar  
    34    18    23 ar  
    35    19    20 ar  
    36    19    50 1   
    37    20    21 ar  
    38    20    51 1   
    39    21    22 ar  
    40    21    52 1   
    41    22    23 ar  
    42    22    53 1   
    43    23    54 1   
    44    24    25 1   
    45    24    55 1   
    46    25    26 2   
    47    25    27 1   
    48    27    28 1   
    49    27    33 1   
    50    28    29 1   
    51    28    56 1   
    52    28    57 1   
    53    29    30 1   
    54    29    58 1   
    55    29    59 1   
    56    30    31 1   
    57    30    35 1   
    58    31    32 2   
    59    31    33 1   
    60    33    34 2   
    61    35    36 1   
    62    35    60 1   
    63    35    61 1   
    64    36    62 1   
    65    36    63 1   
    66    36    64 1   
@<TRIPOS>SUBSTRUCTURE
     1 YPP         1 TEMP              0 ****  ****    0 ROOT
