@<TRIPOS>MOLECULE
YPP
   64    66     1     0     0
SMALL
No Charge or Current Charge


@<TRIPOS>ATOM
      1 C           -4.5220   -16.3480    14.5470 c          1 YPP       0.715000
      2 N           -6.3260   -16.7800    12.8880 ns         1 YPP      -0.427900
      3 O           -4.6110   -15.8430    15.6570 o          1 YPP      -0.725000
      4 CA          -5.6330   -17.3200    14.0950 c3         1 YPP      -0.079300
      5 CB          -5.0380   -18.7500    13.9900 c5         1 YPP       0.380500
      6 NAE         -3.9850   -18.9090    12.9660 n7         1 YPP      -0.872400
      7 CAG         -4.6280   -19.2790    11.6470 c5         1 YPP       0.050500
      8 CAH         -5.5450   -20.5010    11.9690 c5         1 YPP       0.172000
      9 SAI         -6.3330   -20.0280    13.5900 ss         1 YPP      -0.602000
     10 CAJ         -3.6590   -19.6310    10.4350 c          1 YPP       0.729000
     11 OAK         -2.5320   -20.0640    10.6510 o          1 YPP      -0.735000
     12 OAL         -4.0090   -19.3350     9.2990 o          1 YPP      -0.735000
     13 CAM         -6.6720   -20.7010    10.9290 c3         1 YPP      -0.063100
     14 CAN         -4.8010   -21.8490    12.1750 c3         1 YPP      -0.063100
     15 CAP         -7.6510   -16.3920    12.8310 c          1 YPP       0.595100
     16 OAQ         -8.4110   -16.5050    13.7880 o          1 YPP      -0.636100
     17 CAR         -8.0970   -15.7840    11.4700 c3         1 YPP       0.068000
     18 CAS         -8.1880   -16.8510    10.3770 ca         1 YPP      -0.094300
     19 CAT         -7.1920   -16.9330     9.3830 ca         1 YPP      -0.086500
     20 CAU         -7.2840   -17.8970     8.3640 ca         1 YPP      -0.103000
     21 CAV         -8.3750   -18.7810     8.3250 ca         1 YPP      -0.110000
     22 CAW         -9.3710   -18.7060     9.3110 ca         1 YPP      -0.103000
     23 CAX         -9.2770   -17.7480    10.3360 ca         1 YPP      -0.086500
     24 NAY         -9.3830   -15.0730    11.6200 ns         1 YPP      -0.463900
     25 CAZ         -9.8420   -14.0770    10.7990 c          1 YPP       0.649100
     26 OBA         -9.1590   -13.6790     9.8670 o          1 YPP      -0.629100
     27 NBB        -11.1210   -13.5340    11.0700 n          1 YPP      -0.390400
     28 CBC        -11.5940   -12.4520    10.1480 c6         1 YPP       0.092000
     29 CBD        -12.6570   -11.5060    10.7520 c6         1 YPP       0.085000
     30 NBE        -13.7760   -12.2360    11.3710 n          1 YPP      -0.408800
     31 CBF        -13.5250   -13.4340    12.0730 c          1 YPP       0.486000
     32 OBG        -14.4280   -14.0300    12.6570 o          1 YPP      -0.514000
     33 CBH        -12.0220   -13.9920    12.0760 c          1 YPP       0.486000
     34 OBI        -11.6930   -14.8160    12.9240 o          1 YPP      -0.467000
     35 CBJ        -15.1350   -11.6560    11.2860 c3         1 YPP       0.102000
     36 CBK        -15.3600   -10.5220    12.3020 c3         1 YPP      -0.116100
     37 OXT         -3.6420   -16.0620    13.7450 o          1 YPP      -0.725000
     38 HN          -5.7760   -16.6420    12.0490 hn         1 YPP       0.334500
     39 HA          -6.3610   -17.3550    14.9150 h1         1 YPP       0.067700
     40 HB          -4.6210   -18.9920    14.9800 h2         1 YPP       0.082700
     41 HNAE        -3.4780   -18.0140    12.8930 hn         1 YPP       0.461000
     42 HAG         -5.2480   -18.4420    11.3030 h1         1 YPP       0.021700
     43 HAM         -7.3590   -21.5000    11.2310 hc         1 YPP       0.030367
     44 HAMA        -7.2610   -19.7850    10.8200 hc         1 YPP       0.030367
     45 HAMB        -6.2700   -20.9610     9.9440 hc         1 YPP       0.030367
     46 HAN         -5.4850   -22.6280    12.5320 hc         1 YPP       0.030367
     47 HANA        -4.3560   -22.2100    11.2400 hc         1 YPP       0.030367
     48 HANB        -3.9960   -21.7560    12.9140 hc         1 YPP       0.030367
     49 HAR         -7.3320   -15.0480    11.1920 h1         1 YPP       0.083700
     50 HAT         -6.3470   -16.2480     9.3940 ha         1 YPP       0.116000
     51 HAU         -6.5090   -17.9560     7.6020 ha         1 YPP       0.108000
     52 HAV         -8.4450   -19.5240     7.5340 ha         1 YPP       0.098000
     53 HAW        -10.2150   -19.3910     9.2850 ha         1 YPP       0.108000
     54 HAX        -10.0540   -17.7030    11.0960 ha         1 YPP       0.116000
     55 HNAY        -9.9880   -15.3280    12.3960 hn         1 YPP       0.374500
     56 HBC        -10.7480   -11.8300     9.8210 h1         1 YPP       0.072200
     57 HBCA       -12.0130   -12.9230     9.2470 h1         1 YPP       0.072200
     58 HBD        -12.1840   -10.8780    11.5200 h1         1 YPP       0.051700
     59 HBDA       -13.0330   -10.8350     9.9660 h1         1 YPP       0.051700
     60 HBJ        -15.2900   -11.2620    10.2730 h1         1 YPP       0.053700
     61 HBJA       -15.8900   -12.4370    11.4430 h1         1 YPP       0.053700
     62 HBK        -16.3750   -10.1220    12.2060 hc         1 YPP       0.040700
     63 HBKA       -15.2290   -10.8920    13.3260 hc         1 YPP       0.040700
     64 HBKB       -14.6490    -9.7040    12.1340 hc         1 YPP       0.040700
@<TRIPOS>BOND
     1     1     3 1   
     2     1     4 1   
     3     1    37 1   
     4     2     4 1   
     5     2    15 1   
     6     2    38 1   
     7     4     5 1   
     8     4    39 1   
     9     5     6 1   
    10     5     9 1   
    11     5    40 1   
    12     6     7 1   
    13     6    41 1   
    14     7     8 1   
    15     7    10 1   
    16     7    42 1   
    17     8     9 1   
    18     8    13 1   
    19     8    14 1   
    20    10    11 1   
    21    10    12 1   
    22    13    43 1   
    23    13    44 1   
    24    13    45 1   
    25    14    46 1   
    26    14    47 1   
    27    14    48 1   
    28    15    16 2   
    29    15    17 1   
    30    17    18 1   
    31    17    24 1   
    32    17    49 1   
    33    18    19 ar  
    34    18    23 ar  
    35    19    20 ar  
    36    19    50 1   
    37    20    21 ar  
    38    20    51 1   
    39    21    22 ar  
    40    21    52 1   
    41    22    23 ar  
    42    22    53 1   
    43    23    54 1   
    44    24    25 1   
    45    24    55 1   
    46    25    26 2   
    47    25    27 1   
    48    27    28 1   
    49    27    33 1   
    50    28    29 1   
    51    28    56 1   
    52    28    57 1   
    53    29    30 1   
    54    29    58 1   
    55    29    59 1   
    56    30    31 1   
    57    30    35 1   
    58    31    32 2   
    59    31    33 1   
    60    33    34 2   
    61    35    36 1   
    62    35    60 1   
    63    35    61 1   
    64    36    62 1   
    65    36    63 1   
    66    36    64 1   
@<TRIPOS>SUBSTRUCTURE
     1 YPP         1 TEMP              0 ****  ****    0 ROOT
