@<TRIPOS>MOLECULE
YPS
   68    72     1     0     0
SMALL
bcc


@<TRIPOS>ATOM
      1 C25        -44.1540    13.7520    -7.6060 c6         1 YPS      -0.063400
      2 C24        -44.6010    12.3480    -7.1990 c6         1 YPS      -0.060700
      3 C23        -45.3730    12.4120    -5.8830 c6         1 YPS      -0.061400
      4 C18        -49.1210    11.0550   -11.7610 ca         1 YPS      -0.130000
      5 C19        -47.7890    11.4020   -11.9510 ca         1 YPS      -0.128500
      6 C17        -49.6870    11.2160   -10.5070 ca         1 YPS      -0.128500
      7 C16        -48.9310    11.7180    -9.4520 ca         1 YPS      -0.125000
      8 C15        -47.5930    12.0710    -9.6230 ca         1 YPS      -0.064300
      9 C11        -45.3860    14.6550    -7.7860 c6         1 YPS      -0.122000
     10 C12        -46.2810    14.0530    -8.8730 c6         1 YPS      -0.049400
     11 C10        -42.4080    18.2220    -7.9910 c6         1 YPS      -0.088400
     12 C02        -44.9660    16.0720    -8.1900 c          1 YPS       0.673100
     13 C04        -43.8170    18.1220    -7.4100 c6         1 YPS       0.109700
     14 C05        -43.8970    18.8250    -6.0590 c6         1 YPS      -0.088400
     15 C06        -43.4320    20.2720    -6.1650 c6         1 YPS      -0.072900
     16 C07        -42.0210    20.3710    -6.7330 c6         1 YPS       0.161500
     17 C09        -41.9590    19.6760    -8.0880 c6         1 YPS      -0.072900
     18 C13        -46.7380    12.6320    -8.4960 c6         1 YPS       0.000300
     19 C14        -45.4920    11.7540    -8.2880 c6         1 YPS      -0.062400
     20 C20        -47.0420    11.9020   -10.8960 ca         1 YPS      -0.125000
     21 C21        -47.4990    12.7060    -7.1660 c6         1 YPS      -0.056400
     22 C22        -46.6180    13.2870    -6.0570 c6         1 YPS      -0.044000
     23 C26        -47.3940    13.4240    -4.7540 c3         1 YPS       0.146400
     24 C28        -48.5300    12.2540    -3.0710 c3         1 YPS       0.139400
     25 C29        -48.9710    10.8700    -2.6530 c3         1 YPS      -0.092100
     26 C30        -46.1710    14.6930    -6.4660 c6         1 YPS      -0.063400
     27 N03        -44.2550    16.7470    -7.2700 ns         1 YPS      -0.575900
     28 N08        -41.6450    21.7710    -6.8730 n8         1 YPS      -0.885800
     29 O01        -45.2690    16.5640    -9.2700 o          1 YPS      -0.602100
     30 O27        -47.8340    12.1740    -4.2930 os         1 YPS      -0.411600
     31 H1         -43.5820    13.7150    -8.5390 hc         1 YPS       0.042700
     32 H2         -43.4860    14.1580    -6.8400 hc         1 YPS       0.042700
     33 H3         -43.7170    11.7160    -7.0750 hc         1 YPS       0.052700
     34 H4         -45.6570    11.4030    -5.5720 hc         1 YPS       0.048200
     35 H5         -44.7390    12.8270    -5.0920 hc         1 YPS       0.048200
     36 H6         -49.7090    10.6650   -12.5830 ha         1 YPS       0.129000
     37 H7         -47.3300    11.2830   -12.9240 ha         1 YPS       0.128500
     38 H8         -50.7240    10.9520   -10.3400 ha         1 YPS       0.128500
     39 H9         -49.4070    11.8290    -8.4880 ha         1 YPS       0.129500
     40 H10        -45.7350    14.0280    -9.8190 hc         1 YPS       0.060700
     41 H11        -47.1600    14.6840    -9.0320 hc         1 YPS       0.060700
     42 H12        -42.3810    17.7490    -8.9750 hc         1 YPS       0.044450
     43 H13        -41.7190    17.6610    -7.3490 hc         1 YPS       0.044450
     44 H14        -44.5100    18.6170    -8.0960 h1         1 YPS       0.081700
     45 H15        -44.9210    18.7820    -5.6810 hc         1 YPS       0.044450
     46 H16        -43.2690    18.2910    -5.3350 hc         1 YPS       0.044450
     47 H17        -43.4740    20.7470    -5.1800 hc         1 YPS       0.050950
     48 H18        -44.1110    20.8320    -6.8160 hc         1 YPS       0.050950
     49 H19        -41.3490    19.8230    -6.0500 h1         1 YPS       0.011700
     50 H20        -40.9430    19.7260    -8.4900 hc         1 YPS       0.050950
     51 H21        -42.6030    20.2170    -8.7900 hc         1 YPS       0.050950
     52 H22        -45.7990    10.7390    -8.0150 hc         1 YPS       0.046700
     53 H23        -44.9250    11.6760    -9.2200 hc         1 YPS       0.046700
     54 H24        -46.0070    12.1680   -11.0760 ha         1 YPS       0.129500
     55 H25        -48.3880    13.3390    -7.2730 hc         1 YPS       0.052200
     56 H26        -47.8480    11.7100    -6.8780 hc         1 YPS       0.052200
     57 H27        -46.7490    13.9060    -4.0010 h1         1 YPS       0.019700
     58 H28        -48.2510    14.0990    -4.9150 h1         1 YPS       0.019700
     59 H29        -47.8910    12.6960    -2.2940 h1         1 YPS       0.018200
     60 H30        -49.4050    12.9130    -3.1680 h1         1 YPS       0.018200
     61 H31        -49.5140    10.9240    -1.7090 hc         1 YPS       0.043033
     62 H32        -49.6350    10.4230    -3.3940 hc         1 YPS       0.043033
     63 H33        -48.1190    10.2050    -2.5100 hc         1 YPS       0.043033
     64 H34        -45.5630    15.1150    -5.6600 hc         1 YPS       0.042700
     65 H35        -47.0450    15.3460    -6.5760 hc         1 YPS       0.042700
     66 H36        -43.9890    16.2760    -6.4190 hn         1 YPS       0.307500
     67 H37        -41.6430    22.2100    -5.9600 hn         1 YPS       0.337800
     68 H38        -40.6890    21.8310    -7.2040 hn         1 YPS       0.337800
@<TRIPOS>BOND
     1     1     2 1   
     2     1     9 1   
     3     1    31 1   
     4     1    32 1   
     5     2     3 1   
     6     2    19 1   
     7     2    33 1   
     8     3    22 1   
     9     3    34 1   
    10     3    35 1   
    11     4     5 ar  
    12     4     6 ar  
    13     4    36 1   
    14     5    20 ar  
    15     5    37 1   
    16     6     7 ar  
    17     6    38 1   
    18     7     8 ar  
    19     7    39 1   
    20     8    18 1   
    21     8    20 ar  
    22     9    10 1   
    23     9    12 1   
    24     9    26 1   
    25    10    18 1   
    26    10    40 1   
    27    10    41 1   
    28    11    13 1   
    29    11    17 1   
    30    11    42 1   
    31    11    43 1   
    32    12    27 1   
    33    12    29 2   
    34    13    14 1   
    35    13    27 1   
    36    13    44 1   
    37    14    15 1   
    38    14    45 1   
    39    14    46 1   
    40    15    16 1   
    41    15    47 1   
    42    15    48 1   
    43    16    17 1   
    44    16    28 1   
    45    16    49 1   
    46    17    50 1   
    47    17    51 1   
    48    18    19 1   
    49    18    21 1   
    50    19    52 1   
    51    19    53 1   
    52    20    54 1   
    53    21    22 1   
    54    21    55 1   
    55    21    56 1   
    56    22    23 1   
    57    22    26 1   
    58    23    30 1   
    59    23    57 1   
    60    23    58 1   
    61    24    25 1   
    62    24    30 1   
    63    24    59 1   
    64    24    60 1   
    65    25    61 1   
    66    25    62 1   
    67    25    63 1   
    68    26    64 1   
    69    26    65 1   
    70    27    66 1   
    71    28    67 1   
    72    28    68 1   
@<TRIPOS>SUBSTRUCTURE
     1 YPS         1 TEMP              0 ****  ****    0 ROOT
