@<TRIPOS>MOLECULE
YPS
   68    72     1     0     0
SMALL
No Charge or Current Charge


@<TRIPOS>ATOM
      1 C25        -43.9060    13.2840    -7.7800 c6         1 YPS      -0.063400
      2 C24        -44.5620    11.9290    -7.4020 c6         1 YPS      -0.060700
      3 C23        -45.2110    12.0420    -6.0000 c6         1 YPS      -0.061400
      4 C18        -49.6740    11.5860   -11.6490 ca         1 YPS      -0.112000
      5 C19        -48.3180    11.7670   -11.9580 ca         1 YPS      -0.110500
      6 C17        -50.1100    11.7440   -10.3260 ca         1 YPS      -0.110500
      7 C16        -49.1970    12.0830    -9.3120 ca         1 YPS      -0.107000
      8 C15        -47.8210    12.2700    -9.6040 ca         1 YPS      -0.064300
      9 C11        -44.9840    14.4100    -7.8600 c6         1 YPS      -0.122000
     10 C12        -46.1180    14.0260    -8.8650 c6         1 YPS      -0.049400
     11 C10        -42.2920    18.1460    -7.2770 c6         1 YPS      -0.088400
     12 C02        -44.3180    15.7560    -8.2970 c          1 YPS       0.606100
     13 C04        -43.8010    18.1480    -7.6430 c6         1 YPS       0.109700
     14 C05        -44.5460    19.2030    -6.7850 c6         1 YPS      -0.088400
     15 C06        -43.9320    20.6150    -6.9610 c6         1 YPS      -0.072900
     16 C07        -42.4210    20.6120    -6.6140 c6         1 YPS       0.161500
     17 C09        -41.6630    19.5520    -7.4540 c6         1 YPS      -0.072900
     18 C13        -46.7730    12.6490    -8.5140 c6         1 YPS       0.000300
     19 C14        -45.6470    11.5610    -8.4540 c6         1 YPS      -0.062400
     20 C20        -47.4020    12.1050   -10.9470 ca         1 YPS      -0.107000
     21 C21        -47.3890    12.7730    -7.0780 c6         1 YPS      -0.056400
     22 C22        -46.3110    13.1470    -6.0120 c6         1 YPS      -0.044000
     23 C26        -46.9580    13.3010    -4.5940 c3         1 YPS       0.169600
     24 C28        -48.1920    12.1120    -2.8880 c3         1 YPS       0.162600
     25 C29        -48.7890    10.7240    -2.6080 c3         1 YPS      -0.092100
     26 C30        -45.6510    14.5010    -6.4360 c6         1 YPS      -0.063400
     27 N03        -44.3860    16.8220    -7.4240 ns         1 YPS      -0.508900
     28 N08        -41.8390    21.9490    -6.8210 n8         1 YPS      -0.996200
     29 O01        -43.7580    15.8670    -9.3790 o          1 YPS      -0.602100
     30 O27        -47.5700    12.0630    -4.1790 os         1 YPS      -0.458000
     31 H1         -43.3930    13.1840    -8.7470 hc         1 YPS       0.042700
     32 H2         -43.1300    13.5480    -7.0480 hc         1 YPS       0.042700
     33 H3         -43.7920    11.1450    -7.3830 hc         1 YPS       0.052700
     34 H4         -45.6400    11.0720    -5.7130 hc         1 YPS       0.048200
     35 H5         -44.4440    12.2750    -5.2480 hc         1 YPS       0.048200
     36 H6         -50.3820    11.3240   -12.4320 ha         1 YPS       0.111000
     37 H7         -47.9740    11.6450   -12.9830 ha         1 YPS       0.110500
     38 H8         -51.1610    11.6040   -10.0830 ha         1 YPS       0.110500
     39 H9         -49.5850    12.1940    -8.3050 ha         1 YPS       0.111500
     40 H10        -45.6960    13.9930    -9.8780 hc         1 YPS       0.060700
     41 H11        -46.8860    14.8120    -8.8870 hc         1 YPS       0.060700
     42 H12        -41.7540    17.4240    -7.9070 hc         1 YPS       0.044450
     43 H13        -42.1600    17.8110    -6.2390 hc         1 YPS       0.044450
     44 H14        -43.9140    18.4120    -8.7070 h1         1 YPS       0.081700
     45 H15        -45.6080    19.2270    -7.0670 hc         1 YPS       0.044450
     46 H16        -44.5110    18.9170    -5.7240 hc         1 YPS       0.044450
     47 H17        -44.4640    21.3290    -6.3180 hc         1 YPS       0.050950
     48 H18        -44.0790    20.9520    -7.9960 hc         1 YPS       0.050950
     49 H19        -42.3020    20.3710    -5.5470 h1         1 YPS       0.011700
     50 H20        -40.6060    19.5210    -7.1570 hc         1 YPS       0.050950
     51 H21        -41.6830    19.8300    -8.5170 hc         1 YPS       0.050950
     52 H22        -46.0860    10.5830    -8.2100 hc         1 YPS       0.046700
     53 H23        -45.1670    11.4400    -9.4330 hc         1 YPS       0.046700
     54 H24        -46.3590    12.2400   -11.2190 ha         1 YPS       0.111500
     55 H25        -48.1800    13.5360    -7.0720 hc         1 YPS       0.052200
     56 H26        -47.8660    11.8240    -6.7980 hc         1 YPS       0.052200
     57 H27        -46.1800    13.5980    -3.8790 h1         1 YPS       0.019700
     58 H28        -47.7080    14.1020    -4.6310 h1         1 YPS       0.019700
     59 H29        -47.4570    12.3590    -2.1100 h1         1 YPS       0.018200
     60 H30        -48.9910    12.8650    -2.8680 h1         1 YPS       0.018200
     61 H31        -49.2780    10.7130    -1.6270 hc         1 YPS       0.043033
     62 H32        -49.5360    10.4640    -3.3680 hc         1 YPS       0.043033
     63 H33        -48.0040     9.9580    -2.6100 hc         1 YPS       0.043033
     64 H34        -44.9000    14.7860    -5.6850 hc         1 YPS       0.042700
     65 H35        -46.4140    15.2930    -6.4260 hc         1 YPS       0.042700
     66 H36        -44.8670    16.6550    -6.5500 hn         1 YPS       0.307500
     67 H37        -42.2970    22.6090    -6.1810 hn         1 YPS       0.393000
     68 H38        -40.8660    21.9380    -6.4930 hn         1 YPS       0.393000
@<TRIPOS>BOND
     1     1     2 1   
     2     1     9 1   
     3     1    31 1   
     4     1    32 1   
     5     2     3 1   
     6     2    19 1   
     7     2    33 1   
     8     3    22 1   
     9     3    34 1   
    10     3    35 1   
    11     4     5 ar  
    12     4     6 ar  
    13     4    36 1   
    14     5    20 ar  
    15     5    37 1   
    16     6     7 ar  
    17     6    38 1   
    18     7     8 ar  
    19     7    39 1   
    20     8    18 1   
    21     8    20 ar  
    22     9    10 1   
    23     9    12 1   
    24     9    26 1   
    25    10    18 1   
    26    10    40 1   
    27    10    41 1   
    28    11    13 1   
    29    11    17 1   
    30    11    42 1   
    31    11    43 1   
    32    12    27 1   
    33    12    29 2   
    34    13    14 1   
    35    13    27 1   
    36    13    44 1   
    37    14    15 1   
    38    14    45 1   
    39    14    46 1   
    40    15    16 1   
    41    15    47 1   
    42    15    48 1   
    43    16    17 1   
    44    16    28 1   
    45    16    49 1   
    46    17    50 1   
    47    17    51 1   
    48    18    19 1   
    49    18    21 1   
    50    19    52 1   
    51    19    53 1   
    52    20    54 1   
    53    21    22 1   
    54    21    55 1   
    55    21    56 1   
    56    22    23 1   
    57    22    26 1   
    58    23    30 1   
    59    23    57 1   
    60    23    58 1   
    61    24    25 1   
    62    24    30 1   
    63    24    59 1   
    64    24    60 1   
    65    25    61 1   
    66    25    62 1   
    67    25    63 1   
    68    26    64 1   
    69    26    65 1   
    70    27    66 1   
    71    28    67 1   
    72    28    68 1   
@<TRIPOS>SUBSTRUCTURE
     1 YPS         1 TEMP              0 ****  ****    0 ROOT
