@<TRIPOS>MOLECULE
YPU
   40    42     1     0     0
SMALL
No Charge or Current Charge


@<TRIPOS>ATOM
      1 C10         29.2820   -13.2170    23.0260 ca         1 YPU      -0.082000
      2 C11         28.8210   -14.5480    22.9410 ca         1 YPU       0.007000
      3 C13         28.6740   -15.3450    24.1680 cc         1 YPU      -0.154000
      4 C17         28.9220   -15.0010    25.5080 cc         1 YPU       0.255900
      5 C21         32.3820   -17.4990    17.6920 ca         1 YPU       0.002000
      6 C22         33.0820   -18.7020    17.5110 ca         1 YPU      -0.065900
      7 C24         32.4880   -19.9230    17.8500 ca         1 YPU      -0.023000
      8 C25         31.1860   -19.9350    18.3740 ca         1 YPU      -0.217000
      9 C12         28.5130   -15.0780    21.6680 ca         1 YPU      -0.077000
     10 C14         28.2420   -16.6400    24.1760 cd         1 YPU      -0.157000
     11 C2          30.4750   -18.7380    18.5600 ca         1 YPU       0.171100
     12 C3          31.0670   -17.4890    18.2190 ca         1 YPU      -0.184600
     13 C4          30.3900   -16.1390    18.3800 c          1 YPU       0.620700
     14 C7          28.6640   -14.3030    20.4980 ca         1 YPU      -0.135300
     15 C8          29.1240   -12.9760    20.6100 ca         1 YPU       0.164000
     16 C9          29.4310   -12.4370    21.8670 ca         1 YPU      -0.144000
     17 F19         29.2700   -12.2010    19.5120 f          1 YPU      -0.184000
     18 N15         28.2540   -17.0030    25.5280 na         1 YPU       0.132800
     19 N16         28.6800   -15.9760    26.3610 nd         1 YPU      -0.523800
     20 N5          29.1110   -16.1170    18.8770 ns         1 YPU      -0.494900
     21 O20         30.9570   -15.0970    18.0780 o          1 YPU      -0.591100
     22 Br23        34.8570   -18.6730    16.7970 br         1 YPU      -0.082100
     23 H31         29.5270   -12.7790    23.9900 ha         1 YPU       0.118000
     24 H34         29.2770   -14.0550    25.8920 h4         1 YPU       0.039100
     25 H35         28.7300   -18.7510    26.6040 h1         1 YPU       0.055700
     26 H36         27.0430   -18.1810    26.7870 h1         1 YPU       0.055700
     27 H37         27.5590   -18.9790    25.2720 h1         1 YPU       0.055700
     28 H38         32.8730   -16.5670    17.4180 ha         1 YPU       0.155000
     29 H39         33.0310   -20.8550    17.7090 ha         1 YPU       0.133000
     30 H40         30.7350   -20.8900    18.6340 ha         1 YPU       0.119000
     31 H32         28.1550   -16.0990    21.5720 ha         1 YPU       0.119000
     32 H33         27.9390   -17.3180    23.3880 h4         1 YPU       0.152000
     33 H28         28.4930   -14.1900    18.3310 h1         1 YPU       0.070200
     34 H29         27.2600   -15.1790    19.1240 h1         1 YPU       0.070200
     35 H30         29.7840   -11.4120    21.9430 ha         1 YPU       0.131000
     36 H27         28.7130   -17.0230    19.1010 hn         1 YPU       0.326500
     37 H26         29.0200   -19.7850    19.2290 ho         1 YPU       0.475000
     38 C18         27.8730   -18.3100    26.0820 c3         1 YPU       0.073900
     39 C6          28.3250   -14.9120    19.1410 c3         1 YPU       0.157300
     40 O1          29.2160   -18.8350    19.0750 oh         1 YPU      -0.545100
@<TRIPOS>BOND
     1     1     2 ar  
     2     1    16 ar  
     3     1    23 1   
     4     2     3 1   
     5     2     9 ar  
     6     3     4 1   
     7     3    10 2   
     8     4    19 2   
     9     4    24 1   
    10     5     6 ar  
    11     5    12 ar  
    12     5    28 1   
    13     6     7 ar  
    14     6    22 1   
    15     7     8 ar  
    16     7    29 1   
    17     8    11 ar  
    18     8    30 1   
    19     9    14 ar  
    20     9    31 1   
    21    10    18 1   
    22    10    32 1   
    23    11    12 ar  
    24    11    40 1   
    25    12    13 1   
    26    13    20 1   
    27    13    21 2   
    28    14    15 ar  
    29    14    39 1   
    30    15    16 ar  
    31    15    17 1   
    32    16    35 1   
    33    18    19 1   
    34    18    38 1   
    35    20    36 1   
    36    20    39 1   
    37    25    38 1   
    38    26    38 1   
    39    27    38 1   
    40    33    39 1   
    41    34    39 1   
    42    37    40 1   
@<TRIPOS>SUBSTRUCTURE
     1 YPU         1 TEMP              0 ****  ****    0 ROOT
