@<TRIPOS>MOLECULE
YPU
   40    42     1     0     0
SMALL
abcg2


@<TRIPOS>ATOM
      1 C10         28.3070   -13.1230    22.9520 ca         1 YPU      -0.082000
      2 C11         28.6500   -14.4530    22.7130 ca         1 YPU       0.007000
      3 C13         28.7510   -15.4160    23.8080 cc         1 YPU      -0.154000
      4 C17         28.8500   -15.1650    25.1920 cc         1 YPU       0.255900
      5 C21         32.2450   -17.9420    18.1180 ca         1 YPU       0.002000
      6 C22         32.6080   -19.2630    17.9440 ca         1 YPU      -0.065900
      7 C24         31.7820   -20.2840    18.3900 ca         1 YPU      -0.023000
      8 C25         30.5860   -19.9660    19.0060 ca         1 YPU      -0.217000
      9 C12         28.8980   -14.8460    21.3950 ca         1 YPU      -0.077000
     10 C14         28.7780   -16.7970    23.7300 cd         1 YPU      -0.157000
     11 C2          30.1960   -18.6380    19.1710 ca         1 YPU       0.171100
     12 C3          31.0300   -17.6090    18.7140 ca         1 YPU      -0.184600
     13 C4          30.7490   -16.1430    18.8670 c          1 YPU       0.620700
     14 C7          28.8070   -13.9630    20.3290 ca         1 YPU      -0.135300
     15 C8          28.4580   -12.6530    20.6220 ca         1 YPU       0.164000
     16 C9          28.2120   -12.2180    21.9060 ca         1 YPU      -0.144000
     17 F19         28.3560   -11.7750    19.6070 f          1 YPU      -0.184000
     18 N15         28.8840   -17.2610    24.9850 na         1 YPU       0.132800
     19 N16         28.9300   -16.2840    25.8850 nd         1 YPU      -0.523800
     20 N5          29.4700   -15.7480    18.7470 ns         1 YPU      -0.494900
     21 O20         31.6680   -15.3570    19.0430 o          1 YPU      -0.591100
     22 BR23        34.2450   -19.6790    17.0990 br         1 YPU      -0.082100
     23 H31         28.0990   -12.7820    23.9580 ha         1 YPU       0.118000
     24 H34         28.8760   -14.2120    25.6980 h4         1 YPU       0.039100
     25 H35         29.8920   -18.8330    25.9190 h1         1 YPU       0.055700
     26 H36         28.1250   -18.8710    26.0750 h1         1 YPU       0.055700
     27 H37         28.8890   -19.2790    24.5310 h1         1 YPU       0.055700
     28 H38         32.8960   -17.1440    17.7860 ha         1 YPU       0.155000
     29 H39         32.0560   -21.3230    18.2680 ha         1 YPU       0.133000
     30 H40         29.9470   -20.7640    19.3670 ha         1 YPU       0.119000
     31 H32         29.1690   -15.8730    21.1920 ha         1 YPU       0.119000
     32 H33         28.7220   -17.4660    22.8870 h4         1 YPU       0.152000
     33 H28         29.8250   -13.7290    18.4540 h1         1 YPU       0.070200
     34 H29         28.1590   -14.2370    18.3050 h1         1 YPU       0.070200
     35 H30         27.9440   -11.1850    22.0880 ha         1 YPU       0.131000
     36 H27         28.7450   -16.4350    18.6170 hn         1 YPU       0.326500
     37 H26         28.5600   -19.1080    20.0480 ho         1 YPU       0.475000
     38 C18         28.9510   -18.6390    25.4060 c3         1 YPU       0.073900
     39 C6          29.0660   -14.3750    18.8960 c3         1 YPU       0.157300
     40 O1          29.0410   -18.3170    19.7770 oh         1 YPU      -0.545100
@<TRIPOS>BOND
     1     1     2 ar  
     2     1    16 ar  
     3     1    23 1   
     4     2     3 1   
     5     2     9 ar  
     6     3     4 1   
     7     3    10 2   
     8     4    19 2   
     9     4    24 1   
    10     5     6 ar  
    11     5    12 ar  
    12     5    28 1   
    13     6     7 ar  
    14     6    22 1   
    15     7     8 ar  
    16     7    29 1   
    17     8    11 ar  
    18     8    30 1   
    19     9    14 ar  
    20     9    31 1   
    21    10    18 1   
    22    10    32 1   
    23    11    12 ar  
    24    11    40 1   
    25    12    13 1   
    26    13    20 1   
    27    13    21 2   
    28    14    15 ar  
    29    14    39 1   
    30    15    16 ar  
    31    15    17 1   
    32    16    35 1   
    33    18    19 1   
    34    18    38 1   
    35    20    36 1   
    36    20    39 1   
    37    25    38 1   
    38    26    38 1   
    39    27    38 1   
    40    33    39 1   
    41    34    39 1   
    42    37    40 1   
@<TRIPOS>SUBSTRUCTURE
     1 YPU         1 TEMP              0 ****  ****    0 ROOT
