@<TRIPOS>MOLECULE
YPV
   42    43     1     0     0
SMALL
No Charge or Current Charge


@<TRIPOS>ATOM
      1 C12        -25.0250   -13.7110    19.0410 ca         1 YPV       0.228000
      2 C13        -26.2960   -13.5800    19.6360 ca         1 YPV      -0.098000
      3 C14        -27.1590   -14.6870    19.7280 ca         1 YPV      -0.096000
      4 C23        -25.1680   -11.5490    22.3710 ca         1 YPV       0.039000
      5 C03        -25.1880   -11.9960    23.7060 ca         1 YPV      -0.191600
      6 C04        -24.0670   -12.6660    24.2300 ca         1 YPV       0.211100
      7 C06        -22.9430   -12.8980    23.4230 ca         1 YPV      -0.273000
      8 C07        -22.9250   -12.4630    22.0880 ca         1 YPV       0.007000
      9 C08        -24.0390   -11.7860    21.5610 ca         1 YPV      -0.340500
     10 C15        -26.7640   -15.9400    19.2230 ca         1 YPV      -0.072300
     11 C16        -27.6910   -17.1460    19.3330 c3         1 YPV      -0.031100
     12 C17        -27.2280   -18.1700    20.3940 c3         1 YPV      -0.069400
     13 C18        -27.1940   -17.6060    21.8340 c3         1 YPV      -0.078400
     14 C19        -26.7700   -18.6520    22.8810 c3         1 YPV      -0.087100
     15 C20        -25.5000   -16.0710    18.6200 ca         1 YPV      -0.096000
     16 C21        -24.6400   -14.9620    18.5290 ca         1 YPV      -0.098000
     17 N11        -24.1320   -12.6430    18.9380 nu         1 YPV      -0.873100
     18 O01        -27.0150   -12.6860    25.0000 o          1 YPV      -0.704500
     19 O24        -26.7880   -10.5760    24.6290 o          1 YPV      -0.704500
     20 S09        -24.0210   -11.2380    19.8520 sy         1 YPV       1.131600
     21 H131       -26.6310   -12.6260    20.0270 ha         1 YPV       0.123000
     22 H141       -28.1330   -14.5690    20.1960 ha         1 YPV       0.112500
     23 H231       -26.0350   -11.0240    21.9710 ha         1 YPV       0.163000
     24 H061       -22.0750   -13.4140    23.8240 ha         1 YPV       0.092000
     25 H071       -22.0490   -12.6530    21.4700 ha         1 YPV       0.111000
     26 H161       -27.7510   -17.6510    18.3620 hc         1 YPV       0.051700
     27 H162       -28.7140   -16.8260    19.5690 hc         1 YPV       0.051700
     28 H171       -26.2310   -18.5420    20.1270 hc         1 YPV       0.032700
     29 H172       -27.9040   -19.0340    20.3650 hc         1 YPV       0.032700
     30 H182       -28.1870   -17.2200    22.0960 hc         1 YPV       0.043700
     31 H181       -26.4990   -16.7590    21.8810 hc         1 YPV       0.043700
     32 H192       -26.7590   -18.2070    23.8830 hc         1 YPV       0.026033
     33 H191       -27.4670   -19.4990    22.8890 hc         1 YPV       0.026033
     34 H193       -25.7640   -19.0330    22.6640 hc         1 YPV       0.026033
     35 H201       -25.1810   -17.0320    18.2230 ha         1 YPV       0.112500
     36 H211       -23.6660   -15.0810    18.0620 ha         1 YPV       0.123000
     37 H111       -23.1980   -12.8420    18.6110 hn         1 YPV       0.465000
     38 H051       -23.1710   -13.5140    25.6810 ho         1 YPV       0.435000
     39 C02        -26.4020   -11.7320    24.5420 c          1 YPV       0.722600
     40 O10        -25.2350   -10.4820    19.5330 o          1 YPV      -0.561000
     41 O22        -22.6830   -10.7530    19.5060 o          1 YPV      -0.561000
     42 O05        -24.0330   -13.0770    25.5280 oh         1 YPV      -0.474100
@<TRIPOS>BOND
     1     1     2 ar  
     2     1    16 ar  
     3     1    17 1   
     4     2     3 ar  
     5     2    21 1   
     6     3    10 ar  
     7     3    22 1   
     8     4     5 ar  
     9     4     9 ar  
    10     4    23 1   
    11     5     6 ar  
    12     5    39 1   
    13     6     7 ar  
    14     6    42 1   
    15     7     8 ar  
    16     7    24 1   
    17     8     9 ar  
    18     8    25 1   
    19     9    20 1   
    20    10    11 1   
    21    10    15 ar  
    22    11    12 1   
    23    11    26 1   
    24    11    27 1   
    25    12    13 1   
    26    12    28 1   
    27    12    29 1   
    28    13    14 1   
    29    13    30 1   
    30    13    31 1   
    31    14    32 1   
    32    14    33 1   
    33    14    34 1   
    34    15    16 ar  
    35    15    35 1   
    36    16    36 1   
    37    17    20 1   
    38    17    37 1   
    39    18    39 1   
    40    19    39 1   
    41    20    40 2   
    42    20    41 2   
    43    38    42 1   
@<TRIPOS>SUBSTRUCTURE
     1 YPV         1 TEMP              0 ****  ****    0 ROOT
