@<TRIPOS>MOLECULE
YPV
   42    43     1     0     0
SMALL
abcg2


@<TRIPOS>ATOM
      1 C12        -24.3980   -14.3280    20.0070 ca         1 YPV       0.228000
      2 C13        -24.8610   -14.6960    21.2640 ca         1 YPV      -0.098000
      3 C14        -26.0600   -15.3810    21.3890 ca         1 YPV      -0.096000
      4 C23        -25.0520   -11.3900    21.8800 ca         1 YPV       0.039000
      5 C03        -25.4990   -11.2140    23.1840 ca         1 YPV      -0.191600
      6 C04        -24.5390   -11.2720    24.2100 ca         1 YPV       0.211100
      7 C06        -23.1920   -11.5210    23.9050 ca         1 YPV      -0.273000
      8 C07        -22.7800   -11.7210    22.6080 ca         1 YPV       0.007000
      9 C08        -23.7230   -11.6490    21.5890 ca         1 YPV      -0.340500
     10 C15        -26.8110   -15.7290    20.2700 ca         1 YPV      -0.072300
     11 C16        -28.0850   -16.5150    20.3980 c3         1 YPV      -0.031100
     12 C17        -27.9080   -18.0020    20.0770 c3         1 YPV      -0.069400
     13 C18        -26.9670   -18.7300    21.0280 c3         1 YPV      -0.078400
     14 C19        -26.8720   -20.2200    20.7290 c3         1 YPV      -0.087100
     15 C20        -26.3290   -15.3600    19.0140 ca         1 YPV      -0.096000
     16 C21        -25.1440   -14.6560    18.8790 ca         1 YPV      -0.098000
     17 N11        -23.1590   -13.6330    19.9040 nu         1 YPV      -0.873100
     18 O01        -27.4550   -11.1720    24.5390 o          1 YPV      -0.704500
     19 O24        -27.6430   -10.6830    22.3730 o          1 YPV      -0.704500
     20 S09        -23.2170   -11.9550    19.9390 sy         1 YPV       1.131600
     21 H131       -24.2780   -14.4520    22.1430 ha         1 YPV       0.123000
     22 H141       -26.4120   -15.6600    22.3750 ha         1 YPV       0.112500
     23 H231       -25.7850   -11.3300    21.0870 ha         1 YPV       0.163000
     24 H061       -22.4610   -11.5590    24.7050 ha         1 YPV       0.092000
     25 H071       -21.7370   -11.9230    22.4010 ha         1 YPV       0.111000
     26 H161       -28.8400   -16.0960    19.7280 hc         1 YPV       0.051700
     27 H162       -28.4770   -16.4120    21.4140 hc         1 YPV       0.051700
     28 H171       -27.5480   -18.1120    19.0490 hc         1 YPV       0.032700
     29 H172       -28.8910   -18.4800    20.1070 hc         1 YPV       0.032700
     30 H182       -27.3100   -18.5820    22.0570 hc         1 YPV       0.043700
     31 H181       -25.9700   -18.2860    20.9760 hc         1 YPV       0.043700
     32 H192       -26.1930   -20.7230    21.4190 hc         1 YPV       0.026033
     33 H191       -27.8460   -20.7030    20.8140 hc         1 YPV       0.026033
     34 H193       -26.5040   -20.3970    19.7170 hc         1 YPV       0.026033
     35 H201       -26.8970   -15.6170    18.1270 ha         1 YPV       0.112500
     36 H211       -24.7920   -14.3680    17.8960 ha         1 YPV       0.123000
     37 H111       -22.5910   -13.9290    19.1140 hn         1 YPV       0.465000
     38 H051       -24.1220   -11.1060    26.0530 ho         1 YPV       0.435000
     39 C02        -27.0040   -10.9960    23.3960 c          1 YPV       0.722600
     40 O10        -24.2350   -11.4390    19.0330 o          1 YPV      -0.561000
     41 O22        -21.8370   -11.5330    19.7460 o          1 YPV      -0.561000
     42 O05        -24.8980   -11.0670    25.4810 oh         1 YPV      -0.474100
@<TRIPOS>BOND
     1     1     2 ar  
     2     1    16 ar  
     3     1    17 1   
     4     2     3 ar  
     5     2    21 1   
     6     3    10 ar  
     7     3    22 1   
     8     4     5 ar  
     9     4     9 ar  
    10     4    23 1   
    11     5     6 ar  
    12     5    39 1   
    13     6     7 ar  
    14     6    42 1   
    15     7     8 ar  
    16     7    24 1   
    17     8     9 ar  
    18     8    25 1   
    19     9    20 1   
    20    10    11 1   
    21    10    15 ar  
    22    11    12 1   
    23    11    26 1   
    24    11    27 1   
    25    12    13 1   
    26    12    28 1   
    27    12    29 1   
    28    13    14 1   
    29    13    30 1   
    30    13    31 1   
    31    14    32 1   
    32    14    33 1   
    33    14    34 1   
    34    15    16 ar  
    35    15    35 1   
    36    16    36 1   
    37    17    20 1   
    38    17    37 1   
    39    18    39 1   
    40    19    39 1   
    41    20    40 2   
    42    20    41 2   
    43    38    42 1   
@<TRIPOS>SUBSTRUCTURE
     1 YPV         1 TEMP              0 ****  ****    0 ROOT
