@<TRIPOS>MOLECULE
YPW
   49    51     1     0     0
SMALL
abcg2


@<TRIPOS>ATOM
      1 C1          29.9930    44.6560     9.1210 ca         1 YPW       0.491300
      2 C2          28.8860    44.2940     9.9510 ca         1 YPW       0.561900
      3 N3          27.8870    45.1470    10.1000 nb         1 YPW      -0.713000
      4 C4          27.9560    46.3320     9.4660 ca         1 YPW       0.337900
      5 C5          29.0290    46.6830     8.6660 cp         1 YPW       0.336500
      6 N6          30.0510    45.8000     8.5100 nb         1 YPW      -0.706000
      7 N7          28.8800    43.1040    10.6100 nv         1 YPW      -1.054900
      8 O8          30.9710    43.7340     9.0090 os         1 YPW      -0.487300
      9 C9          32.0970    44.0310     8.1450 c3         1 YPW       0.229600
     10 C10         32.9590    45.1270     8.7410 ca         1 YPW      -0.021300
     11 C11         33.6140    46.0870     7.9540 ca         1 YPW      -0.146600
     12 C12         34.4010    47.0630     8.5720 ca         1 YPW      -0.075000
     13 C13         34.5520    47.1070     9.9510 ca         1 YPW      -0.153000
     14 C14         33.8900    46.1510    10.6970 ca         1 YPW       0.185000
     15 C15         33.1040    45.1720    10.1250 ca         1 YPW      -0.142000
     16 F16         34.0160    46.1730    12.0460 f          1 YPW      -0.177000
     17 C17         29.2030    47.9900     8.0040 cp         1 YPW      -0.187500
     18 C18         28.1420    48.8040     7.5370 ca         1 YPW       0.595300
     19 N19         28.3220    49.9620     6.9260 nb         1 YPW      -0.757000
     20 C20         29.5730    50.4070     6.7370 ca         1 YPW       0.382900
     21 C21         30.6860    49.7010     7.1510 ca         1 YPW      -0.214000
     22 C22         30.4860    48.4810     7.7890 ca         1 YPW      -0.025000
     23 O23         26.8830    48.3530     7.7130 os         1 YPW      -0.471300
     24 C24         25.8010    49.1610     7.2320 c3         1 YPW       0.161900
     25 C25         33.5000    46.0770     6.4590 c          1 YPW       0.611700
     26 N26         33.3740    47.2800     5.8720 ns         1 YPW      -0.502900
     27 O27         33.5260    45.0310     5.8040 o          1 YPW      -0.610100
     28 C28         33.2690    47.4310     4.4320 c3         1 YPW       0.096300
     29 C29         32.8550    42.7210     8.0040 c3         1 YPW      -0.086100
     30 H4          27.1300    47.0090     9.6190 h4         1 YPW       0.043100
     31 HN7         28.0010    42.7990    10.9990 hn         1 YPW       0.488500
     32 HN7A        29.5060    42.3830    10.2910 hn         1 YPW       0.488500
     33 H9          31.7040    44.3500     7.1840 h1         1 YPW       0.089700
     34 H12         34.9200    47.7950     7.9680 ha         1 YPW       0.118000
     35 H13         35.1660    47.8550    10.4320 ha         1 YPW       0.137000
     36 H15         32.5950    44.4570    10.7570 ha         1 YPW       0.147000
     37 H20         29.6700    51.3630     6.2350 h4         1 YPW       0.020100
     38 H21         31.6810    50.0910     6.9860 ha         1 YPW       0.118000
     39 H22         31.3260    47.8940     8.1330 ha         1 YPW       0.135000
     40 H24         24.9000    48.6080     7.4850 h1         1 YPW       0.049033
     41 H24A        25.7970    50.1350     7.7230 h1         1 YPW       0.049033
     42 H24B        25.8700    49.3010     6.1540 h1         1 YPW       0.049033
     43 HN26        33.2980    48.1040     6.4440 hn         1 YPW       0.316500
     44 H28         33.1940    48.4910     4.2030 h1         1 YPW       0.043367
     45 H28A        34.1470    47.0170     3.9340 h1         1 YPW       0.043367
     46 H28B        32.3830    46.9190     4.0500 h1         1 YPW       0.043367
     47 H29         33.7200    42.8750     7.3620 hc         1 YPW       0.055367
     48 H29A        33.1940    42.3730     8.9800 hc         1 YPW       0.055367
     49 H29B        32.2110    41.9620     7.5580 hc         1 YPW       0.055367
@<TRIPOS>BOND
     1     1     2 ar  
     2     1     6 ar  
     3     1     8 1   
     4     2     3 ar  
     5     2     7 1   
     6     3     4 ar  
     7     4     5 ar  
     8     4    30 1   
     9     5     6 ar  
    10     5    17 1   
    11     7    31 1   
    12     7    32 1   
    13     8     9 1   
    14     9    10 1   
    15     9    29 1   
    16     9    33 1   
    17    10    11 ar  
    18    10    15 ar  
    19    11    12 ar  
    20    11    25 1   
    21    12    13 ar  
    22    12    34 1   
    23    13    14 ar  
    24    13    35 1   
    25    14    15 ar  
    26    14    16 1   
    27    15    36 1   
    28    17    18 ar  
    29    17    22 ar  
    30    18    19 ar  
    31    18    23 1   
    32    19    20 ar  
    33    20    21 ar  
    34    20    37 1   
    35    21    22 ar  
    36    21    38 1   
    37    22    39 1   
    38    23    24 1   
    39    24    40 1   
    40    24    41 1   
    41    24    42 1   
    42    25    26 1   
    43    25    27 2   
    44    26    28 1   
    45    26    43 1   
    46    28    44 1   
    47    28    45 1   
    48    28    46 1   
    49    29    47 1   
    50    29    48 1   
    51    29    49 1   
@<TRIPOS>SUBSTRUCTURE
     1 YPW         1 TEMP              0 ****  ****    0 ROOT
