@<TRIPOS>MOLECULE
YPW
   49    51     1     0     0
SMALL
No Charge or Current Charge


@<TRIPOS>ATOM
      1 C1          29.9970    44.7150     9.1700 ca         1 YPW       0.491300
      2 C2          28.9440    44.5150    10.1560 ca         1 YPW       0.561900
      3 N3          27.9860    45.4160    10.4150 nb         1 YPW      -0.713000
      4 C4          28.0710    46.5580     9.6700 ca         1 YPW       0.337900
      5 C5          29.0910    46.7860     8.6760 cp         1 YPW       0.336500
      6 N6          30.0560    45.8570     8.4330 nb         1 YPW      -0.706000
      7 N7          28.7590    43.4220    10.9470 nv         1 YPW      -1.054900
      8 O8          30.9400    43.7200     8.9550 os         1 YPW      -0.487300
      9 C9          32.0690    43.9340     8.0790 c3         1 YPW       0.229600
     10 C10         33.0390    44.9540     8.7100 ca         1 YPW      -0.021300
     11 C11         33.6440    46.0180     7.9720 ca         1 YPW      -0.146600
     12 C12         34.4650    46.9470     8.6610 ca         1 YPW      -0.075000
     13 C13         34.6980    46.8250    10.0390 ca         1 YPW      -0.153000
     14 C14         34.1180    45.7720    10.7510 ca         1 YPW       0.185000
     15 C15         33.2990    44.8460    10.0960 ca         1 YPW      -0.142000
     16 F16         34.3450    45.6510    12.0760 f          1 YPW      -0.177000
     17 C17         29.2200    48.0590     7.9040 cp         1 YPW      -0.187500
     18 C18         28.0930    48.7430     7.3810 ca         1 YPW       0.595300
     19 N19         28.1750    49.8940     6.6780 nb         1 YPW      -0.757000
     20 C20         29.3980    50.4190     6.4590 ca         1 YPW       0.382900
     21 C21         30.5760    49.8190     6.9220 ca         1 YPW      -0.214000
     22 C22         30.4940    48.6260     7.6510 ca         1 YPW      -0.025000
     23 O23         26.8610    48.1630     7.5790 os         1 YPW      -0.471300
     24 C24         25.6550    48.7700     7.0730 c3         1 YPW       0.161900
     25 C25         33.4580    46.1800     6.4740 c          1 YPW       0.611700
     26 N26         33.5140    47.4730     6.0020 ns         1 YPW      -0.502900
     27 O27         33.3370    45.2370     5.7050 o          1 YPW      -0.610100
     28 C28         33.3660    47.8480     4.5940 c3         1 YPW       0.096300
     29 C29         32.7360    42.5620     7.8740 c3         1 YPW      -0.086100
     30 H4          27.3290    47.3230     9.8890 h4         1 YPW       0.043100
     31 HN7         27.8430    43.3390    11.3750 hn         1 YPW       0.488500
     32 HN7A        29.2210    42.5590    10.6730 hn         1 YPW       0.488500
     33 H9          31.7000    44.2850     7.1090 h1         1 YPW       0.089700
     34 H12         34.9590    47.7580     8.1290 ha         1 YPW       0.118000
     35 H13         35.3360    47.5390    10.5530 ha         1 YPW       0.137000
     36 H15         32.8530    44.0430    10.6760 ha         1 YPW       0.147000
     37 H20         29.4340    51.3480     5.8910 h4         1 YPW       0.020100
     38 H21         31.5380    50.2810     6.7170 ha         1 YPW       0.118000
     39 H22         31.3980    48.1510     8.0270 ha         1 YPW       0.135000
     40 H24         24.7820    48.1600     7.3350 h1         1 YPW       0.049033
     41 H24A        25.5100    49.7710     7.5000 h1         1 YPW       0.049033
     42 H24B        25.6890    48.8590     5.9790 h1         1 YPW       0.049033
     43 HN26        33.6260    48.2070     6.6900 hn         1 YPW       0.316500
     44 H28         33.4360    48.9380     4.4950 h1         1 YPW       0.043367
     45 H28A        34.1620    47.3780     4.0010 h1         1 YPW       0.043367
     46 H28B        32.3880    47.5130     4.2240 h1         1 YPW       0.043367
     47 H29         33.6010    42.6560     7.2070 hc         1 YPW       0.055367
     48 H29A        33.0800    42.1470     8.8280 hc         1 YPW       0.055367
     49 H29B        32.0300    41.8560     7.4210 hc         1 YPW       0.055367
@<TRIPOS>BOND
     1     1     2 ar  
     2     1     6 ar  
     3     1     8 1   
     4     2     3 ar  
     5     2     7 1   
     6     3     4 ar  
     7     4     5 ar  
     8     4    30 1   
     9     5     6 ar  
    10     5    17 1   
    11     7    31 1   
    12     7    32 1   
    13     8     9 1   
    14     9    10 1   
    15     9    29 1   
    16     9    33 1   
    17    10    11 ar  
    18    10    15 ar  
    19    11    12 ar  
    20    11    25 1   
    21    12    13 ar  
    22    12    34 1   
    23    13    14 ar  
    24    13    35 1   
    25    14    15 ar  
    26    14    16 1   
    27    15    36 1   
    28    17    18 ar  
    29    17    22 ar  
    30    18    19 ar  
    31    18    23 1   
    32    19    20 ar  
    33    20    21 ar  
    34    20    37 1   
    35    21    22 ar  
    36    21    38 1   
    37    22    39 1   
    38    23    24 1   
    39    24    40 1   
    40    24    41 1   
    41    24    42 1   
    42    25    26 1   
    43    25    27 2   
    44    26    28 1   
    45    26    43 1   
    46    28    44 1   
    47    28    45 1   
    48    28    46 1   
    49    29    47 1   
    50    29    48 1   
    51    29    49 1   
@<TRIPOS>SUBSTRUCTURE
     1 YPW         1 TEMP              0 ****  ****    0 ROOT
