@<TRIPOS>MOLECULE
YPZ
   36    37     1     0     0
SMALL
bcc


@<TRIPOS>ATOM
      1 C5           5.1610    -2.1330    22.5920 ca         1 YPZ      -0.100500
      2 C4           6.0220    -1.1220    22.9980 ca         1 YPZ      -0.171000
      3 C3           5.5570    -0.1430    23.8680 ca         1 YPZ      -0.100500
      4 C2           4.2520    -0.1620    24.3320 ca         1 YPZ      -0.173000
      5 C1           3.3940    -1.1800    23.9180 ca         1 YPZ       0.189600
      6 C6           3.8520    -2.1670    23.0470 ca         1 YPZ      -0.173000
      7 NX1          2.0710    -1.2570    24.3490 nu         1 YPZ      -0.428700
      8 NX2          1.5730    -0.3470    25.1180 n2         1 YPZ      -0.375400
      9 N           -1.5810     3.7310    25.9190 n8         1 YPZ      -0.891800
     10 CA          -2.3350     3.2300    27.0550 c3         1 YPZ       0.013500
     11 C           -2.8090     4.3060    28.0720 c          1 YPZ       0.904600
     12 O           -2.3090     5.4440    27.9770 o          1 YPZ      -0.834300
     13 CG          -1.1840     0.9670    26.9890 cc         1 YPZ      -0.112400
     14 CD1         -2.2290    -0.0510    26.7930 c          1 YPZ       0.570500
     15 CD2          0.0190     0.7870    26.4120 cd         1 YPZ      -0.189600
     16 CE1         -1.9010    -1.1850    25.9470 cc         1 YPZ      -0.341200
     17 CE2          0.3550    -0.3460    25.5830 cd         1 YPZ       0.390900
     18 CZ          -0.6900    -1.3330    25.3650 cd         1 YPZ       0.063500
     19 OH          -0.3610    -2.3630    24.5740 oh         1 YPZ      -0.531100
     20 OXT         -3.6450     3.9210    28.9150 o          1 YPZ      -0.834300
     21 H5           5.5060    -2.9040    21.9160 ha         1 YPZ       0.125500
     22 H4           7.0430    -1.0980    22.6420 ha         1 YPZ       0.125000
     23 H3           6.2190     0.6490    24.1930 ha         1 YPZ       0.125500
     24 H2           3.9040     0.6050    25.0100 ha         1 YPZ       0.145000
     25 H6           3.1860    -2.9580    22.7240 ha         1 YPZ       0.145000
     26 H1           1.5160    -2.0480    24.0410 hn         1 YPZ       0.446800
     27 HA          -3.2290     2.7320    26.6680 h1         1 YPZ       0.050700
     28 HD2          0.8080     1.5160    26.5580 ha         1 YPZ       0.152000
     29 HE1         -2.6740    -1.9310    25.7910 ha         1 YPZ       0.135000
     30 HH          -1.0940    -2.9850    24.4740 ho         1 YPZ       0.434000
     31 CB          -1.5060     2.1730    27.8110 c3         1 YPZ      -0.015200
     32 H           -2.1970     4.2970    25.3480 hn         1 YPZ       0.327300
     33 HB2         -0.5750     2.6390    28.1490 hc         1 YPZ       0.057700
     34 HB3         -2.0540     1.8760    28.7050 hc         1 YPZ       0.057700
     35 OX1         -3.3350     0.0460    27.3210 o          1 YPZ      -0.516100
     36 H7          -0.8940     4.3870    26.2720 hn         1 YPZ       0.327300
@<TRIPOS>BOND
     1     1     2 ar  
     2     1     6 ar  
     3     1    21 1   
     4     2     3 ar  
     5     2    22 1   
     6     3     4 ar  
     7     3    23 1   
     8     4     5 ar  
     9     4    24 1   
    10     5     6 ar  
    11     5     7 1   
    12     6    25 1   
    13     7     8 1   
    14     7    26 1   
    15     8    17 2   
    16     9    10 1   
    17     9    32 1   
    18     9    36 1   
    19    10    11 1   
    20    10    27 1   
    21    10    31 1   
    22    11    12 1   
    23    11    20 1   
    24    13    14 1   
    25    13    15 2   
    26    13    31 1   
    27    14    16 1   
    28    14    35 2   
    29    15    17 1   
    30    15    28 1   
    31    16    18 2   
    32    16    29 1   
    33    17    18 1   
    34    18    19 1   
    35    19    30 1   
    36    31    33 1   
    37    31    34 1   
@<TRIPOS>SUBSTRUCTURE
     1 YPZ         1 TEMP              0 ****  ****    0 ROOT
