@<TRIPOS>MOLECULE
YPZ
   36    37     1     0     0
SMALL
No Charge or Current Charge


@<TRIPOS>ATOM
      1 C5           5.2170    -2.3470    22.5550 ca         1 YPZ      -0.100500
      2 C4           6.1350    -1.3290    22.8580 ca         1 YPZ      -0.171000
      3 C3           5.7470    -0.2520    23.6730 ca         1 YPZ      -0.100500
      4 C2           4.4380    -0.1950    24.1840 ca         1 YPZ      -0.173000
      5 C1           3.5090    -1.2130    23.8850 ca         1 YPZ       0.189600
      6 C6           3.9080    -2.2870    23.0680 ca         1 YPZ      -0.173000
      7 NX1          2.1960    -1.1840    24.3800 nu         1 YPZ      -0.428700
      8 NX2          1.6780    -0.2030    25.1810 n2         1 YPZ      -0.375400
      9 N           -1.8230     3.8090    25.9440 n8         1 YPZ      -0.891800
     10 CA          -2.5120     3.2400    27.1670 c3         1 YPZ       0.013500
     11 C           -3.0680     4.2850    28.2280 c          1 YPZ       0.904600
     12 O           -2.2930     5.1060    28.7100 o          1 YPZ      -0.834300
     13 CG          -1.1830     1.0320    26.9930 cc         1 YPZ      -0.112400
     14 CD1         -2.2180    -0.0070    26.7470 c          1 YPZ       0.570500
     15 CD2          0.0890     0.9140    26.4580 cd         1 YPZ      -0.189600
     16 CE1         -1.8100    -1.1210    25.8840 cc         1 YPZ      -0.341200
     17 CE2          0.4470    -0.2080    25.6270 cd         1 YPZ       0.390900
     18 CZ          -0.5530    -1.2550    25.3360 cd         1 YPZ       0.063500
     19 OH          -0.3000    -2.3420    24.5600 oh         1 YPZ      -0.531100
     20 OXT         -4.2730     4.3110    28.4520 o          1 YPZ      -0.834300
     21 H5           5.5170    -3.1810    21.9240 ha         1 YPZ       0.125500
     22 H4           7.1480    -1.3740    22.4620 ha         1 YPZ       0.125000
     23 H3           6.4590     0.5380    23.9080 ha         1 YPZ       0.125500
     24 H2           4.1500     0.6430    24.8130 ha         1 YPZ       0.145000
     25 H6           3.2040    -3.0800    22.8270 ha         1 YPZ       0.145000
     26 H1           1.6040    -1.9760    24.1000 hn         1 YPZ       0.446800
     27 HA          -3.3950     2.7010    26.7990 h1         1 YPZ       0.050700
     28 HD2          0.8310     1.6800    26.6590 ha         1 YPZ       0.152000
     29 HE1         -2.5830    -1.8600    25.7100 ha         1 YPZ       0.135000
     30 HH          -1.1250    -2.8720    24.5290 ho         1 YPZ       0.434000
     31 CB          -1.6030     2.1970    27.8730 c3         1 YPZ      -0.015200
     32 H           -2.4640     4.4490    25.4620 hn         1 YPZ       0.327300
     33 HB2         -0.7130     2.7080    28.2600 hc         1 YPZ       0.057700
     34 HB3         -2.1260     1.8160    28.7600 hc         1 YPZ       0.057700
     35 OX1         -3.3470     0.0360    27.2180 o          1 YPZ      -0.516100
     36 H7          -1.0540     4.4140    26.2510 hn         1 YPZ       0.327300
@<TRIPOS>BOND
     1     1     2 ar  
     2     1     6 ar  
     3     1    21 1   
     4     2     3 ar  
     5     2    22 1   
     6     3     4 ar  
     7     3    23 1   
     8     4     5 ar  
     9     4    24 1   
    10     5     6 ar  
    11     5     7 1   
    12     6    25 1   
    13     7     8 1   
    14     7    26 1   
    15     8    17 2   
    16     9    10 1   
    17     9    32 1   
    18     9    36 1   
    19    10    11 1   
    20    10    27 1   
    21    10    31 1   
    22    11    12 1   
    23    11    20 1   
    24    13    14 1   
    25    13    15 2   
    26    13    31 1   
    27    14    16 1   
    28    14    35 2   
    29    15    17 1   
    30    15    28 1   
    31    16    18 2   
    32    16    29 1   
    33    17    18 1   
    34    18    19 1   
    35    19    30 1   
    36    31    33 1   
    37    31    34 1   
@<TRIPOS>SUBSTRUCTURE
     1 YPZ         1 TEMP              0 ****  ****    0 ROOT
