@<TRIPOS>MOLECULE
YQ2
   56    59     1     0     0
SMALL
No Charge or Current Charge


@<TRIPOS>ATOM
      1 C13         11.1660   -17.2490   -18.2720 c6         1 YQ2      -0.098900
      2 C15         10.9620   -16.3050   -15.8930 c6         1 YQ2      -0.098900
      3 C17          7.7480   -16.9280   -22.5100 ca         1 YQ2       0.306000
      4 C20          9.8190   -15.0810   -22.9590 ca         1 YQ2      -0.176000
      5 C22          8.9570   -17.0210   -21.7970 ca         1 YQ2      -0.226000
      6 C11          5.0870   -19.1880   -21.0290 c3         1 YQ2      -0.093100
      7 C12         10.0740   -18.2810   -17.8940 c6         1 YQ2       0.199300
      8 C18          7.5630   -15.9020   -23.4690 ca         1 YQ2      -0.203600
      9 C19          8.6170   -14.9800   -23.6800 ca         1 YQ2      -0.047000
     10 C23          6.2750   -15.7450   -24.2550 c          1 YQ2       0.717600
     11 C1           4.4470   -14.8440   -20.2200 ca         1 YQ2      -0.082300
     12 C10          6.2410   -18.1750   -20.9100 c3         1 YQ2       0.291800
     13 C14         11.9380   -16.7710   -17.0100 c6         1 YQ2      -0.080400
     14 C16          9.8760   -17.3800   -15.6260 c6         1 YQ2       0.199300
     15 C2           4.8170   -16.0750   -20.7860 ca         1 YQ2       0.024000
     16 C21          9.9910   -16.1010   -22.0170 ca         1 YQ2      -0.096000
     17 C3           5.8110   -16.8860   -20.1930 ca         1 YQ2      -0.127300
     18 C4           6.4240   -16.4720   -18.9840 ca         1 YQ2       0.348100
     19 C5           5.0550   -14.4270   -19.0290 ca         1 YQ2      -0.097000
     20 C6           8.0580   -16.9150   -17.3300 c2         1 YQ2       0.732200
     21 C7           7.3640   -15.9510   -16.4060 c6         1 YQ2      -0.276700
     22 C8           6.7200   -14.8420   -17.2180 c          1 YQ2       0.529800
     23 N1           6.0220   -15.2500   -18.3590 n          1 YQ2      -0.040500
     24 N2           7.5200   -17.1980   -18.4740 ne         1 YQ2      -0.723100
     25 N3           9.1530   -17.6600   -16.8980 nh         1 YQ2      -0.666600
     26 N4           6.7460   -17.8520   -22.2490 nu         1 YQ2      -0.974200
     27 O1           6.8660   -13.6660   -16.9160 o          1 YQ2      -0.429000
     28 O2           5.5120   -16.6970   -24.3550 o          1 YQ2      -0.711000
     29 O3           6.0460   -14.6620   -24.7720 o          1 YQ2      -0.711000
     30 H1          11.8640   -17.6930   -18.9950 hc         1 YQ2       0.065450
     31 H2          10.7010   -16.3890   -18.7740 hc         1 YQ2       0.065450
     32 H3          11.5200   -16.1020   -14.9690 hc         1 YQ2       0.065450
     33 H4          10.4860   -15.3590   -16.1860 hc         1 YQ2       0.065450
     34 H5          10.6180   -14.3640   -23.1350 ha         1 YQ2       0.100000
     35 H6           9.0990   -17.8120   -21.0670 ha         1 YQ2       0.079000
     36 H7           4.6990   -19.4360   -20.0340 hc         1 YQ2       0.045700
     37 H8           4.2600   -18.7930   -21.6310 hc         1 YQ2       0.045700
     38 H9           5.4380   -20.1170   -21.4950 hc         1 YQ2       0.045700
     39 H10          9.5470   -18.6350   -18.7920 h1         1 YQ2       0.076700
     40 H11         10.5630   -19.1640   -17.4550 h1         1 YQ2       0.076700
     41 H12          8.5090   -14.1780   -24.4080 ha         1 YQ2       0.137000
     42 H13          7.0390   -18.6770   -20.3470 h1         1 YQ2       0.070700
     43 H14         12.5610   -17.5930   -16.6310 hc         1 YQ2       0.058200
     44 H15         12.6270   -15.9570   -17.2740 hc         1 YQ2       0.058200
     45 H16          9.2030   -17.0800   -14.8110 h1         1 YQ2       0.076700
     46 H17         10.3790   -18.2950   -15.2770 h1         1 YQ2       0.076700
     47 H18          4.3510   -16.3850   -21.7200 ha         1 YQ2       0.197000
     48 H19         10.9230   -16.1810   -21.4600 ha         1 YQ2       0.084000
     49 H20          4.8040   -13.4750   -18.5550 h4         1 YQ2       0.175000
     50 H21          6.5580   -16.5340   -15.9470 hc         1 YQ2       0.124200
     51 H22          8.0010   -15.5060   -15.6370 hc         1 YQ2       0.124200
     52 H23          2.4170   -14.4470   -20.8800 hc         1 YQ2       0.068700
     53 H24          3.3130   -12.9920   -20.4200 hc         1 YQ2       0.068700
     54 H25          3.6660   -13.7950   -21.9550 hc         1 YQ2       0.068700
     55 H26          6.0180   -17.7820   -22.9760 hn         1 YQ2       0.547000
     56 C9           3.4050   -13.9710   -20.9040 c3         1 YQ2      -0.053800
@<TRIPOS>BOND
     1     1     7 1   
     2     1    13 1   
     3     1    30 1   
     4     1    31 1   
     5     2    13 1   
     6     2    14 1   
     7     2    32 1   
     8     2    33 1   
     9     3     5 ar  
    10     3     8 ar  
    11     3    26 1   
    12     4     9 ar  
    13     4    16 ar  
    14     4    34 1   
    15     5    16 ar  
    16     5    35 1   
    17     6    12 1   
    18     6    36 1   
    19     6    37 1   
    20     6    38 1   
    21     7    25 1   
    22     7    39 1   
    23     7    40 1   
    24     8     9 ar  
    25     8    10 1   
    26     9    41 1   
    27    10    28 1   
    28    10    29 1   
    29    11    15 ar  
    30    11    19 ar  
    31    11    56 1   
    32    12    17 1   
    33    12    26 1   
    34    12    42 1   
    35    13    43 1   
    36    13    44 1   
    37    14    25 1   
    38    14    45 1   
    39    14    46 1   
    40    15    17 ar  
    41    15    47 1   
    42    16    48 1   
    43    17    18 ar  
    44    18    23 2   
    45    18    24 1   
    46    19    23 1   
    47    19    49 1   
    48    20    21 1   
    49    20    24 2   
    50    20    25 1   
    51    21    22 1   
    52    21    50 1   
    53    21    51 1   
    54    22    23 1   
    55    22    27 2   
    56    26    55 1   
    57    52    56 1   
    58    53    56 1   
    59    54    56 1   
@<TRIPOS>SUBSTRUCTURE
     1 YQ2         1 TEMP              0 ****  ****    0 ROOT
