@<TRIPOS>MOLECULE
YQ2
   56    59     1     0     0
SMALL
abcg2


@<TRIPOS>ATOM
      1 C13         11.1450   -18.1370   -17.6750 c6         1 YQ2      -0.098900
      2 C15         11.0590   -16.9210   -15.4760 c6         1 YQ2      -0.098900
      3 C17          7.5960   -16.4190   -22.9960 ca         1 YQ2       0.306000
      4 C20          8.9350   -14.2650   -24.2180 ca         1 YQ2      -0.176000
      5 C22          8.6700   -15.7730   -22.3600 ca         1 YQ2      -0.226000
      6 C11          6.2640   -19.0200   -20.6780 c3         1 YQ2      -0.093100
      7 C12          9.7080   -18.5860   -17.4400 c6         1 YQ2       0.199300
      8 C18          7.1710   -15.9470   -24.2630 ca         1 YQ2      -0.203600
      9 C19          7.8650   -14.8870   -24.8420 ca         1 YQ2      -0.047000
     10 C23          5.9680   -16.5140   -25.0060 c          1 YQ2       0.717600
     11 C1           4.6690   -14.7690   -20.1270 ca         1 YQ2      -0.082300
     12 C10          6.9770   -17.7080   -20.9920 c3         1 YQ2       0.291800
     13 C14         11.8580   -17.8800   -16.3520 c6         1 YQ2      -0.080400
     14 C16          9.6210   -17.4010   -15.3140 c6         1 YQ2       0.199300
     15 C2           5.3220   -15.8200   -20.8150 ca         1 YQ2       0.024000
     16 C21          9.3280   -14.7170   -22.9650 ca         1 YQ2      -0.096000
     17 C3           6.3080   -16.5670   -20.2400 ca         1 YQ2      -0.127300
     18 C4           6.6970   -16.2880   -18.9050 ca         1 YQ2       0.348100
     19 C5           5.0630   -14.5200   -18.8580 ca         1 YQ2      -0.097000
     20 C6           8.0650   -16.8220   -17.1210 c2         1 YQ2       0.732200
     21 C7           7.4670   -15.7510   -16.2680 c6         1 YQ2      -0.276700
     22 C8           6.4090   -14.9220   -16.9230 c          1 YQ2       0.529800
     23 N1           6.0540   -15.2600   -18.2590 n          1 YQ2      -0.040500
     24 N2           7.6540   -17.0200   -18.3560 ne         1 YQ2      -0.723100
     25 N3           9.0140   -17.5870   -16.6290 nh         1 YQ2      -0.666600
     26 N4           6.9780   -17.4980   -22.4140 nu         1 YQ2      -0.974200
     27 O1           5.8680   -14.0140   -16.3630 o          1 YQ2      -0.429000
     28 O2           5.2780   -17.3880   -24.4150 o          1 YQ2      -0.711000
     29 O3           5.7360   -16.0640   -26.1390 o          1 YQ2      -0.711000
     30 H1          11.6610   -18.9090   -18.2490 hc         1 YQ2       0.065450
     31 H2          11.1400   -17.2310   -18.2880 hc         1 YQ2       0.065450
     32 H3          11.5080   -16.8340   -14.4850 hc         1 YQ2       0.065450
     33 H4          11.0520   -15.9190   -15.9150 hc         1 YQ2       0.065450
     34 H5           9.4480   -13.4400   -24.6950 ha         1 YQ2       0.100000
     35 H6           9.0040   -16.1030   -21.3850 ha         1 YQ2       0.079000
     36 H7           6.2560   -19.2110   -19.6070 hc         1 YQ2       0.045700
     37 H8           5.2300   -18.9920   -21.0250 hc         1 YQ2       0.045700
     38 H9           6.7700   -19.8510   -21.1700 hc         1 YQ2       0.045700
     39 H10          9.1720   -18.7350   -18.3720 h1         1 YQ2       0.076700
     40 H11          9.6900   -19.5250   -16.8810 h1         1 YQ2       0.076700
     41 H12          7.5390   -14.5350   -25.8120 ha         1 YQ2       0.137000
     42 H13          8.0030   -17.7980   -20.6290 h1         1 YQ2       0.070700
     43 H14         11.9890   -18.8290   -15.8230 hc         1 YQ2       0.058200
     44 H15         12.8580   -17.4800   -16.5320 hc         1 YQ2       0.058200
     45 H16          9.0400   -16.7100   -14.7100 h1         1 YQ2       0.076700
     46 H17          9.5970   -18.3670   -14.8040 h1         1 YQ2       0.076700
     47 H18          5.0240   -16.0320   -21.8370 ha         1 YQ2       0.197000
     48 H19         10.1560   -14.2460   -22.4480 ha         1 YQ2       0.084000
     49 H20          4.6310   -13.7390   -18.2510 h4         1 YQ2       0.175000
     50 H21          7.0160   -16.1800   -15.3670 hc         1 YQ2       0.124200
     51 H22          8.2390   -15.0580   -15.9190 hc         1 YQ2       0.124200
     52 H23          2.7800   -14.6150   -21.1200 hc         1 YQ2       0.068700
     53 H24          3.1800   -13.2210   -20.1150 hc         1 YQ2       0.068700
     54 H25          3.9820   -13.4570   -21.6690 hc         1 YQ2       0.068700
     55 H26          6.1400   -17.7650   -22.9370 hn         1 YQ2       0.547000
     56 C9           3.5930   -13.9690   -20.7880 c3         1 YQ2      -0.053800
@<TRIPOS>BOND
     1     1     7 1   
     2     1    13 1   
     3     1    30 1   
     4     1    31 1   
     5     2    13 1   
     6     2    14 1   
     7     2    32 1   
     8     2    33 1   
     9     3     5 ar  
    10     3     8 ar  
    11     3    26 1   
    12     4     9 ar  
    13     4    16 ar  
    14     4    34 1   
    15     5    16 ar  
    16     5    35 1   
    17     6    12 1   
    18     6    36 1   
    19     6    37 1   
    20     6    38 1   
    21     7    25 1   
    22     7    39 1   
    23     7    40 1   
    24     8     9 ar  
    25     8    10 1   
    26     9    41 1   
    27    10    28 1   
    28    10    29 1   
    29    11    15 ar  
    30    11    19 ar  
    31    11    56 1   
    32    12    17 1   
    33    12    26 1   
    34    12    42 1   
    35    13    43 1   
    36    13    44 1   
    37    14    25 1   
    38    14    45 1   
    39    14    46 1   
    40    15    17 ar  
    41    15    47 1   
    42    16    48 1   
    43    17    18 ar  
    44    18    23 2   
    45    18    24 1   
    46    19    23 1   
    47    19    49 1   
    48    20    21 1   
    49    20    24 2   
    50    20    25 1   
    51    21    22 1   
    52    21    50 1   
    53    21    51 1   
    54    22    23 1   
    55    22    27 2   
    56    26    55 1   
    57    52    56 1   
    58    53    56 1   
    59    54    56 1   
@<TRIPOS>SUBSTRUCTURE
     1 YQ2         1 TEMP              0 ****  ****    0 ROOT
