@<TRIPOS>MOLECULE
YQ3
   42    45     1     0     0
SMALL
abcg2


@<TRIPOS>ATOM
      1 C10         11.0040   -15.9450   -15.9560 ca         1 YQ3      -0.057000
      2 C11         11.7860   -14.9430   -16.5220 ca         1 YQ3       0.033400
      3 C13         13.3920   -13.7710   -17.2360 cc         1 YQ3       0.384700
      4 C16         11.7390   -12.3450   -19.9300 ca         1 YQ3      -0.044300
      5 C17         11.7500   -13.6340   -20.4490 ca         1 YQ3      -0.136500
      6 C18         11.2480   -13.8480   -21.7250 ca         1 YQ3       0.329400
      7 C20         10.7460   -11.6550   -21.9950 ca         1 YQ3       0.329400
      8 C21         11.2170   -11.3370   -20.7320 ca         1 YQ3      -0.136500
      9 C22         11.1980   -13.8570   -17.2000 ca         1 YQ3      -0.030200
     10 C23          9.8100   -13.7380   -17.3400 ca         1 YQ3      -0.114600
     11 C24          9.0790   -12.5440   -17.9420 c          1 YQ3       0.720600
     12 C27          9.0660   -14.7750   -16.7970 ca         1 YQ3      -0.080000
     13 C2           6.9860   -18.7920   -14.3670 ca         1 YQ3      -0.089300
     14 C3           7.9290   -19.1720   -15.3150 ca         1 YQ3      -0.114000
     15 C4           8.7800   -18.2340   -15.8800 ca         1 YQ3       0.128000
     16 C6           8.7360   -16.8870   -15.5270 cp         1 YQ3       0.014000
     17 C7           7.7750   -16.5210   -14.5840 ca         1 YQ3      -0.093000
     18 C8           6.9170   -17.4460   -14.0160 ca         1 YQ3      -0.115000
     19 C9           9.6300   -15.8620   -16.1080 cp         1 YQ3      -0.091000
     20 N12         13.1570   -14.8470   -16.5490 nd         1 YQ3      -0.598100
     21 N14         12.2740   -13.1200   -17.6560 na         1 YQ3      -0.165600
     22 N19         10.7540   -12.8860   -22.4950 nb         1 YQ3      -0.680000
     23 O25          8.0660   -12.7950   -18.6150 o          1 YQ3      -0.714000
     24 O26          9.5440   -11.4240   -17.6520 o          1 YQ3      -0.714000
     25 H34         11.4670   -16.7630   -15.4180 ha         1 YQ3       0.112000
     26 H35         14.3740   -13.3880   -17.4790 h5         1 YQ3       0.039800
     27 H37         11.7490   -11.1670   -18.1530 h1         1 YQ3       0.078200
     28 H36         13.3380   -11.7010   -18.6830 h1         1 YQ3       0.078200
     29 H38         12.1380   -14.4730   -19.8870 ha         1 YQ3       0.126500
     30 H39         11.2490   -14.8490   -22.1410 h4         1 YQ3       0.005600
     31 H40         10.3380   -10.8770   -22.6310 h4         1 YQ3       0.005600
     32 H41         11.1700   -10.3150   -20.3800 ha         1 YQ3       0.126500
     33 H43          7.9890   -14.7400   -16.9020 ha         1 YQ3       0.128000
     34 H30          6.4980   -20.1460   -12.7760 hc         1 YQ3       0.035033
     35 H28          5.0980   -19.3990   -13.5310 hc         1 YQ3       0.035033
     36 H29          5.9700   -20.6900   -14.3620 hc         1 YQ3       0.035033
     37 H31          7.9950   -20.2080   -15.6240 ha         1 YQ3       0.114000
     38 H32          7.7100   -15.4800   -14.2900 ha         1 YQ3       0.128000
     39 H33          6.1860   -17.1170   -13.2870 ha         1 YQ3       0.106000
     40 C15         12.2950   -12.0060   -18.5730 c3         1 YQ3       0.126900
     41 C1           6.0870   -19.8110   -13.7310 c3         1 YQ3      -0.038800
     42 CL5          9.8880   -18.7850   -17.0990 cl         1 YQ3      -0.209000
@<TRIPOS>BOND
     1     1     2 ar  
     2     1    19 ar  
     3     1    25 1   
     4     2     9 ar  
     5     2    20 1   
     6     3    20 2   
     7     3    21 1   
     8     3    26 1   
     9     4     5 ar  
    10     4     8 ar  
    11     4    40 1   
    12     5     6 ar  
    13     5    29 1   
    14     6    22 ar  
    15     6    30 1   
    16     7     8 ar  
    17     7    22 ar  
    18     7    31 1   
    19     8    32 1   
    20     9    10 ar  
    21     9    21 1   
    22    10    11 1   
    23    10    12 ar  
    24    11    23 1   
    25    11    24 1   
    26    12    19 ar  
    27    12    33 1   
    28    13    14 ar  
    29    13    18 ar  
    30    13    41 1   
    31    14    15 ar  
    32    14    37 1   
    33    15    16 ar  
    34    15    42 1   
    35    16    17 ar  
    36    16    19 1   
    37    17    18 ar  
    38    17    38 1   
    39    18    39 1   
    40    21    40 1   
    41    27    40 1   
    42    28    40 1   
    43    34    41 1   
    44    35    41 1   
    45    36    41 1   
@<TRIPOS>SUBSTRUCTURE
     1 YQ3         1 TEMP              0 ****  ****    0 ROOT
