@<TRIPOS>MOLECULE
YQ3
   42    45     1     0     0
SMALL
No Charge or Current Charge


@<TRIPOS>ATOM
      1 C10         11.0040   -15.9820   -16.0220 ca         1 YQ3      -0.057000
      2 C11         11.8080   -14.9850   -16.5870 ca         1 YQ3       0.033400
      3 C13         13.4900   -13.8180   -17.2630 cc         1 YQ3       0.384700
      4 C16         11.7410   -12.3150   -19.9770 ca         1 YQ3      -0.044300
      5 C17         11.8840   -13.5880   -20.5660 ca         1 YQ3      -0.136500
      6 C18         11.3990   -13.8070   -21.8660 ca         1 YQ3       0.329400
      7 C20         10.6580   -11.6220   -22.0400 ca         1 YQ3       0.329400
      8 C21         11.1150   -11.3160   -20.7460 ca         1 YQ3      -0.136500
      9 C22         11.2570   -13.8910   -17.2080 ca         1 YQ3      -0.030200
     10 C23          9.8560   -13.7050   -17.2870 ca         1 YQ3      -0.114600
     11 C24          9.1940   -12.5010   -17.9030 c          1 YQ3       0.720600
     12 C27          9.0400   -14.7160   -16.7250 ca         1 YQ3      -0.080000
     13 C2           6.9520   -18.8140   -14.3080 ca         1 YQ3      -0.089300
     14 C3           7.9380   -19.2240   -15.2240 ca         1 YQ3      -0.114000
     15 C4           8.8010   -18.2860   -15.8170 ca         1 YQ3       0.128000
     16 C6           8.6960   -16.9030   -15.4980 cp         1 YQ3       0.014000
     17 C7           7.6930   -16.5090   -14.5810 ca         1 YQ3      -0.093000
     18 C8           6.8340   -17.4510   -13.9900 ca         1 YQ3      -0.115000
     19 C9           9.5920   -15.8670   -16.0980 cp         1 YQ3      -0.091000
     20 N12         13.2000   -14.9550   -16.6020 nd         1 YQ3      -0.598100
     21 N14         12.3280   -13.1520   -17.6560 na         1 YQ3      -0.165600
     22 N19         10.7950   -12.8450   -22.6020 nb         1 YQ3      -0.680000
     23 O25          8.4650   -12.6810   -18.8680 o          1 YQ3      -0.714000
     24 O26          9.2920   -11.4310   -17.3210 o          1 YQ3      -0.714000
     25 H34         11.4630   -16.8340   -15.5270 ha         1 YQ3       0.112000
     26 H35         14.4800   -13.4530   -17.5090 h5         1 YQ3       0.039800
     27 H37         11.6300   -11.2190   -18.1100 h1         1 YQ3       0.078200
     28 H36         13.2550   -11.5710   -18.6630 h1         1 YQ3       0.078200
     29 H38         12.3630   -14.4060   -20.0360 ha         1 YQ3       0.126500
     30 H39         11.5000   -14.7840   -22.3380 h4         1 YQ3       0.005600
     31 H40         10.1690   -10.8620   -22.6480 h4         1 YQ3       0.005600
     32 H41         10.9760   -10.3140   -20.3520 ha         1 YQ3       0.126500
     33 H43          7.9590   -14.6060   -16.7740 ha         1 YQ3       0.128000
     34 H30          6.4600   -20.2330   -12.7440 hc         1 YQ3       0.035033
     35 H28          5.0530   -19.3940   -13.4200 hc         1 YQ3       0.035033
     36 H29          5.8390   -20.6830   -14.3410 hc         1 YQ3       0.035033
     37 H31          8.0340   -20.2760   -15.4830 ha         1 YQ3       0.114000
     38 H32          7.5900   -15.4580   -14.3170 ha         1 YQ3       0.128000
     39 H33          6.0770   -17.1180   -13.2830 ha         1 YQ3       0.106000
     40 C15         12.2480   -11.9970   -18.5690 c3         1 YQ3       0.126900
     41 C1           6.0250   -19.8360   -13.6690 c3         1 YQ3      -0.038800
     42 Cl5          9.9720   -18.8860   -16.9950 cl         1 YQ3      -0.209000
@<TRIPOS>BOND
     1     1     2 ar  
     2     1    19 ar  
     3     1    25 1   
     4     2     9 ar  
     5     2    20 1   
     6     3    20 2   
     7     3    21 1   
     8     3    26 1   
     9     4     5 ar  
    10     4     8 ar  
    11     4    40 1   
    12     5     6 ar  
    13     5    29 1   
    14     6    22 ar  
    15     6    30 1   
    16     7     8 ar  
    17     7    22 ar  
    18     7    31 1   
    19     8    32 1   
    20     9    10 ar  
    21     9    21 1   
    22    10    11 1   
    23    10    12 ar  
    24    11    23 1   
    25    11    24 1   
    26    12    19 ar  
    27    12    33 1   
    28    13    14 ar  
    29    13    18 ar  
    30    13    41 1   
    31    14    15 ar  
    32    14    37 1   
    33    15    16 ar  
    34    15    42 1   
    35    16    17 ar  
    36    16    19 1   
    37    17    18 ar  
    38    17    38 1   
    39    18    39 1   
    40    21    40 1   
    41    27    40 1   
    42    28    40 1   
    43    34    41 1   
    44    35    41 1   
    45    36    41 1   
@<TRIPOS>SUBSTRUCTURE
     1 YQ3         1 TEMP              0 ****  ****    0 ROOT
