@<TRIPOS>MOLECULE
YQ7
   35    38     1     0     0
SMALL
abcg2


@<TRIPOS>ATOM
      1 N1          16.3880    21.8040    -2.4810 ns         1 YQ7      -0.510600
      2 N3          18.0780    23.3080     0.2690 nc         1 YQ7      -0.478800
      3 C4          15.2860    19.6710    -2.6520 ca         1 YQ7      -0.162000
      4 C5          16.0000    20.6090    -1.9110 ca         1 YQ7       0.107600
      5 C6          16.3260    20.3360    -0.5790 ca         1 YQ7      -0.193500
      6 C7          17.0820    22.8040    -1.8700 c          1 YQ7       0.600800
      7 C8          17.0640    21.3490     0.1140 cc         1 YQ7       0.518000
      8 C13         13.2600    15.5070     1.0230 ca         1 YQ7       0.333900
      9 C15         15.7390    15.8790     0.0310 ca         1 YQ7      -0.141000
     10 C1          15.9360    19.1330     0.0030 ca         1 YQ7      -0.006000
     11 C11         14.8230    16.9150    -0.0820 cp         1 YQ7      -0.009000
     12 C12         13.5360    16.7360     0.4300 ca         1 YQ7      -0.101300
     13 C14         15.3470    14.6980     0.6430 ca         1 YQ7       0.330900
     14 C16         12.4950    17.8100     0.3680 c3         1 YQ7      -0.046800
     15 C2          15.2240    18.1920    -0.7160 cp         1 YQ7      -0.069000
     16 C3          14.9140    18.4870    -2.0490 ca         1 YQ7       0.180000
     17 C9          18.1340    22.6240     1.3850 cd         1 YQ7       0.552300
     18 N2          17.3920    22.4900    -0.5460 n          1 YQ7      -0.055500
     19 N4          17.5210    21.4090     1.3350 nd         1 YQ7      -0.686000
     20 N5          14.1290    14.5100     1.1310 nb         1 YQ7      -0.654000
     21 O1          17.4010    23.8420    -2.3900 o          1 YQ7      -0.479000
     22 CL1         14.0400    17.3300    -2.9820 cl         1 YQ7      -0.169000
     23 H1          16.1380    21.9770    -3.4460 hn         1 YQ7       0.466000
     24 H2          15.0330    19.8680    -3.6860 ha         1 YQ7       0.141000
     25 H3          19.2220    24.1180     2.4420 hc         1 YQ7       0.060367
     26 H4          18.1070    23.1730     3.4380 hc         1 YQ7       0.060367
     27 H5          19.6180    22.4560     2.8990 hc         1 YQ7       0.060367
     28 H6          12.2720    15.3310     1.4360 h4         1 YQ7       0.020100
     29 H7          16.7450    15.9860    -0.3540 ha         1 YQ7       0.128000
     30 H8          16.1940    18.9380     1.0350 ha         1 YQ7       0.152000
     31 H9          16.0470    13.8760     0.7410 h4         1 YQ7       0.023100
     32 H10         12.2490    18.0710    -0.6630 hc         1 YQ7       0.048367
     33 H11         11.5750    17.4890     0.8550 hc         1 YQ7       0.048367
     34 H12         12.8330    18.7220     0.8600 hc         1 YQ7       0.048367
     35 C10         18.8090    23.1260     2.6060 c3         1 YQ7      -0.117400
@<TRIPOS>BOND
     1     1     4 1   
     2     1     6 1   
     3     1    23 1   
     4     2    17 2   
     5     2    18 1   
     6     3     4 ar  
     7     3    16 ar  
     8     3    24 1   
     9     4     5 ar  
    10     5     7 1   
    11     5    10 ar  
    12     6    18 1   
    13     6    21 2   
    14     7    18 1   
    15     7    19 2   
    16     8    12 ar  
    17     8    20 ar  
    18     8    28 1   
    19     9    11 ar  
    20     9    13 ar  
    21     9    29 1   
    22    10    15 ar  
    23    10    30 1   
    24    11    12 ar  
    25    11    15 1   
    26    12    14 1   
    27    13    20 ar  
    28    13    31 1   
    29    14    32 1   
    30    14    33 1   
    31    14    34 1   
    32    15    16 ar  
    33    16    22 1   
    34    17    19 1   
    35    17    35 1   
    36    25    35 1   
    37    26    35 1   
    38    27    35 1   
@<TRIPOS>SUBSTRUCTURE
     1 YQ7         1 TEMP              0 ****  ****    0 ROOT
