@<TRIPOS>MOLECULE
YQ7
   35    38     1     0     0
SMALL
No Charge or Current Charge


@<TRIPOS>ATOM
      1 N1          16.3990    21.8410    -2.5500 ns         1 YQ7      -0.510600
      2 N3          18.1540    23.2990     0.3270 nc         1 YQ7      -0.478800
      3 C4          15.2620    19.6760    -2.6960 ca         1 YQ7      -0.162000
      4 C5          15.9940    20.6260    -1.9720 ca         1 YQ7       0.107600
      5 C6          16.3490    20.3880    -0.6370 ca         1 YQ7      -0.193500
      6 C7          17.1170    22.8380    -1.9380 c          1 YQ7       0.600800
      7 C8          17.1150    21.4190     0.0610 cc         1 YQ7       0.518000
      8 C13         13.1990    15.4970     1.0470 ca         1 YQ7       0.333900
      9 C15         15.7560    15.9140     0.1500 ca         1 YQ7      -0.141000
     10 C1          15.9630    19.1820    -0.0180 ca         1 YQ7      -0.006000
     11 C11         14.8150    16.9470    -0.0530 cp         1 YQ7      -0.009000
     12 C12         13.4970    16.7270     0.4210 ca         1 YQ7      -0.101300
     13 C14         15.3660    14.7250     0.7850 ca         1 YQ7       0.330900
     14 C16         12.4050    17.7820     0.2820 c3         1 YQ7      -0.046800
     15 C2          15.2180    18.2120    -0.7280 cp         1 YQ7      -0.069000
     16 C3          14.8760    18.4740    -2.0800 ca         1 YQ7       0.180000
     17 C9          18.1880    22.5810     1.4380 cd         1 YQ7       0.552300
     18 N2          17.4600    22.5710    -0.5960 n          1 YQ7      -0.055500
     19 N4          17.5330    21.3630     1.3160 nd         1 YQ7      -0.686000
     20 N5          14.1070    14.5100     1.2290 nb         1 YQ7      -0.654000
     21 O1          17.4220    23.8630    -2.5280 o          1 YQ7      -0.479000
     22 Cl1         13.9790    17.2960    -3.0370 cl         1 YQ7      -0.169000
     23 H1          16.1440    22.0180    -3.5170 hn         1 YQ7       0.466000
     24 H2          14.9930    19.8600    -3.7320 ha         1 YQ7       0.141000
     25 H3          18.4240    23.9840     3.0450 hc         1 YQ7       0.060367
     26 H4          18.7730    22.3040     3.4890 hc         1 YQ7       0.060367
     27 H5          19.9330    23.2200     2.5110 hc         1 YQ7       0.060367
     28 H6          12.1960    15.2940     1.4200 h4         1 YQ7       0.020100
     29 H7          16.7810    16.0300    -0.1880 ha         1 YQ7       0.128000
     30 H8          16.2330    18.9900     1.0190 ha         1 YQ7       0.152000
     31 H9          16.0820    13.9200     0.9440 h4         1 YQ7       0.023100
     32 H10         12.0320    17.8300    -0.7480 hc         1 YQ7       0.048367
     33 H11         11.5490    17.5670     0.9330 hc         1 YQ7       0.048367
     34 H12         12.7760    18.7780     0.5520 hc         1 YQ7       0.048367
     35 C10         18.8670    23.0470     2.6900 c3         1 YQ7      -0.117400
@<TRIPOS>BOND
     1     1     4 1   
     2     1     6 1   
     3     1    23 1   
     4     2    17 2   
     5     2    18 1   
     6     3     4 ar  
     7     3    16 ar  
     8     3    24 1   
     9     4     5 ar  
    10     5     7 1   
    11     5    10 ar  
    12     6    18 1   
    13     6    21 2   
    14     7    18 1   
    15     7    19 2   
    16     8    12 ar  
    17     8    20 ar  
    18     8    28 1   
    19     9    11 ar  
    20     9    13 ar  
    21     9    29 1   
    22    10    15 ar  
    23    10    30 1   
    24    11    12 ar  
    25    11    15 1   
    26    12    14 1   
    27    13    20 ar  
    28    13    31 1   
    29    14    32 1   
    30    14    33 1   
    31    14    34 1   
    32    15    16 ar  
    33    16    22 1   
    34    17    19 1   
    35    17    35 1   
    36    25    35 1   
    37    26    35 1   
    38    27    35 1   
@<TRIPOS>SUBSTRUCTURE
     1 YQ7         1 TEMP              0 ****  ****    0 ROOT
