@<TRIPOS>MOLECULE
YQ8
   41    44     1     0     0
SMALL
No Charge or Current Charge


@<TRIPOS>ATOM
      1 C10         27.4700   -14.1970   -14.0050 ca         1 YQ8      -0.099000
      2 C11         27.0420   -13.7800   -16.3650 ca         1 YQ8      -0.099000
      3 C13         22.6250    -9.3510   -13.5260 ca         1 YQ8       0.098000
      4 C15         22.4200   -11.6030   -13.8870 ca         1 YQ8       0.170900
      5 C17         24.3020    -7.0620   -13.4250 ca         1 YQ8       0.028100
      6 C18         22.9040    -6.9430   -13.1510 ca         1 YQ8       0.182100
      7 C19         22.0890    -8.0960   -13.2070 ca         1 YQ8      -0.230000
      8 C22         20.9480    -5.5320   -12.5470 c3         1 YQ8       0.143900
      9 C24         24.8750    -4.6330   -13.0990 c3         1 YQ8       0.144900
     10 C1          24.8290    -8.3380   -13.7460 ca         1 YQ8       0.050000
     11 C2          24.0040    -9.4610   -13.7950 ca         1 YQ8      -0.184000
     12 C3          24.5540   -10.7230   -14.1180 ca         1 YQ8       0.282500
     13 N4          25.9360   -10.8360   -14.3890 na         1 YQ8      -0.130300
     14 C5          26.8410    -9.7490   -14.3610 cc         1 YQ8      -0.014300
     15 C6          26.2490    -8.5400   -14.0390 cd         1 YQ8      -0.184000
     16 C7          26.4630   -12.0900   -14.7060 ca         1 YQ8       0.006800
     17 C8          26.5120   -12.5170   -16.0470 ca         1 YQ8      -0.084500
     18 C9          27.5200   -14.6180   -15.3440 ca         1 YQ8       0.125000
     19 C12         26.9410   -12.9340   -13.6850 ca         1 YQ8      -0.084500
     20 N14         21.8320   -10.4360   -13.5740 nb         1 YQ8      -0.214000
     21 N16         23.7240   -11.7940   -14.1570 nb         1 YQ8      -0.268000
     22 O21         22.3460    -5.7140   -12.8330 os         1 YQ8      -0.325100
     23 Cl23        28.1830   -16.1980   -15.7440 cl         1 YQ8      -0.195000
     24 H28         27.8400   -14.8490   -13.2170 ha         1 YQ8       0.134500
     25 H29         27.0820   -14.1100   -17.4010 ha         1 YQ8       0.134500
     26 H31         21.7770   -12.4800   -13.9260 h5         1 YQ8       0.045100
     27 H32         21.0250    -8.0410   -13.0040 ha         1 YQ8       0.140000
     28 H34         20.7410    -4.4790   -12.3230 h1         1 YQ8       0.046033
     29 H33         20.3320    -5.8230   -13.4080 h1         1 YQ8       0.046033
     30 H35         20.6450    -6.1290   -11.6770 h1         1 YQ8       0.046033
     31 H37         25.7740    -4.0070   -13.1520 h1         1 YQ8       0.034700
     32 H38         24.1500    -4.2360   -13.8210 h1         1 YQ8       0.034700
     33 H36         24.4640    -4.5430   -12.0860 h1         1 YQ8       0.034700
     34 H41         28.8460    -8.9580   -14.5840 hc         1 YQ8       0.059033
     35 H39         28.7840   -10.6070   -13.9490 hc         1 YQ8       0.059033
     36 H40         28.4720   -10.3030   -15.6700 hc         1 YQ8       0.059033
     37 H26         26.9030    -7.6760   -14.0050 ha         1 YQ8       0.141000
     38 H27         26.1420   -11.8700   -16.8390 ha         1 YQ8       0.130500
     39 H30         26.9020   -12.6100   -12.6470 ha         1 YQ8       0.130500
     40 O20         25.2070    -6.0000   -13.4020 os         1 YQ8      -0.339100
     41 C25         28.3140    -9.9140   -14.6570 c3         1 YQ8      -0.059800
@<TRIPOS>BOND
     1     1    18 ar  
     2     1    19 ar  
     3     1    24 1   
     4     2    17 ar  
     5     2    18 ar  
     6     2    25 1   
     7     3     7 ar  
     8     3    11 ar  
     9     3    20 ar  
    10     4    20 ar  
    11     4    21 ar  
    12     4    26 1   
    13     5     6 ar  
    14     5    10 ar  
    15     5    40 1   
    16     6     7 ar  
    17     6    22 1   
    18     7    27 1   
    19     8    22 1   
    20     8    28 1   
    21     8    29 1   
    22     8    30 1   
    23     9    31 1   
    24     9    32 1   
    25     9    33 1   
    26     9    40 1   
    27    10    11 ar  
    28    10    15 1   
    29    11    12 ar  
    30    12    13 1   
    31    12    21 ar  
    32    13    14 1   
    33    13    16 1   
    34    14    15 2   
    35    14    41 1   
    36    15    37 1   
    37    16    17 ar  
    38    16    19 ar  
    39    17    38 1   
    40    18    23 1   
    41    19    39 1   
    42    34    41 1   
    43    35    41 1   
    44    36    41 1   
@<TRIPOS>SUBSTRUCTURE
     1 YQ8         1 TEMP              0 ****  ****    0 ROOT
