@<TRIPOS>MOLECULE
YQ8
   41    44     1     0     0
SMALL
abcg2


@<TRIPOS>ATOM
      1 C10         27.4680   -13.9710   -13.7800 ca         1 YQ8      -0.099000
      2 C11         27.0400   -13.7630   -16.1500 ca         1 YQ8      -0.099000
      3 C13         22.5850    -9.3110   -13.6020 ca         1 YQ8       0.098000
      4 C15         22.5130   -11.5690   -13.7780 ca         1 YQ8       0.170900
      5 C17         24.1240    -6.9570   -13.7320 ca         1 YQ8       0.028100
      6 C18         22.7420    -6.9100   -13.4300 ca         1 YQ8       0.182100
      7 C19         21.9820    -8.0690   -13.3680 ca         1 YQ8      -0.230000
      8 C22         20.8770    -5.5340   -12.9320 c3         1 YQ8       0.143900
      9 C24         25.3640    -5.3520   -12.5700 c3         1 YQ8       0.144900
     10 C1          24.7390    -8.1720   -13.9660 ca         1 YQ8       0.050000
     11 C2          23.9600    -9.3490   -13.9030 ca         1 YQ8      -0.184000
     12 C3          24.5250   -10.6160   -14.1340 ca         1 YQ8       0.282500
     13 N4          25.8600   -10.6990   -14.4320 na         1 YQ8      -0.130300
     14 C5          26.6520    -9.5610   -14.5170 cc         1 YQ8      -0.014300
     15 C6          26.1250    -8.3370   -14.2950 cd         1 YQ8      -0.184000
     16 C7          26.4240   -11.9930   -14.6510 ca         1 YQ8       0.006800
     17 C8          26.4810   -12.5130   -15.9340 ca         1 YQ8      -0.084500
     18 C9          27.5270   -14.4810   -15.0680 ca         1 YQ8       0.125000
     19 C12         26.9100   -12.7190   -13.5750 ca         1 YQ8      -0.084500
     20 N14         21.8610   -10.4630   -13.5420 nb         1 YQ8      -0.214000
     21 N16         23.8110   -11.7250   -14.0720 nb         1 YQ8      -0.268000
     22 O21         22.2540    -5.6830   -13.2270 os         1 YQ8      -0.325100
     23 CL23        28.2250   -16.0420   -15.3320 cl         1 YQ8      -0.195000
     24 H28         27.8510   -14.5400   -12.9440 ha         1 YQ8       0.134500
     25 H29         27.0910   -14.1710   -17.1500 ha         1 YQ8       0.134500
     26 H31         21.9390   -12.4890   -13.7300 h5         1 YQ8       0.045100
     27 H32         20.9260    -8.0470   -13.1410 ha         1 YQ8       0.140000
     28 H34         20.7020    -4.4680   -12.8170 h1         1 YQ8       0.046033
     29 H33         20.2480    -5.9120   -13.7410 h1         1 YQ8       0.046033
     30 H35         20.6040    -6.0410   -12.0040 h1         1 YQ8       0.046033
     31 H37         25.9160    -4.4350   -12.7690 h1         1 YQ8       0.034700
     32 H38         24.5760    -5.1380   -11.8450 h1         1 YQ8       0.034700
     33 H36         26.0480    -6.0870   -12.1380 h1         1 YQ8       0.034700
     34 H41         28.5930    -8.7860   -14.8780 hc         1 YQ8       0.059033
     35 H39         28.6020   -10.3870   -14.1380 hc         1 YQ8       0.059033
     36 H40         28.2160   -10.2110   -15.8420 hc         1 YQ8       0.059033
     37 H26         26.7710    -7.4750   -14.3740 ha         1 YQ8       0.141000
     38 H27         26.0930   -11.9430   -16.7690 ha         1 YQ8       0.130500
     39 H30         26.8590   -12.3090   -12.5750 ha         1 YQ8       0.130500
     40 O20         24.8350    -5.8000   -13.8120 os         1 YQ8      -0.339100
     41 C25         28.0920    -9.7500   -14.8610 c3         1 YQ8      -0.059800
@<TRIPOS>BOND
     1     1    18 ar  
     2     1    19 ar  
     3     1    24 1   
     4     2    17 ar  
     5     2    18 ar  
     6     2    25 1   
     7     3     7 ar  
     8     3    11 ar  
     9     3    20 ar  
    10     4    20 ar  
    11     4    21 ar  
    12     4    26 1   
    13     5     6 ar  
    14     5    10 ar  
    15     5    40 1   
    16     6     7 ar  
    17     6    22 1   
    18     7    27 1   
    19     8    22 1   
    20     8    28 1   
    21     8    29 1   
    22     8    30 1   
    23     9    31 1   
    24     9    32 1   
    25     9    33 1   
    26     9    40 1   
    27    10    11 ar  
    28    10    15 1   
    29    11    12 ar  
    30    12    13 1   
    31    12    21 ar  
    32    13    14 1   
    33    13    16 1   
    34    14    15 2   
    35    14    41 1   
    36    15    37 1   
    37    16    17 ar  
    38    16    19 ar  
    39    17    38 1   
    40    18    23 1   
    41    19    39 1   
    42    34    41 1   
    43    35    41 1   
    44    36    41 1   
@<TRIPOS>SUBSTRUCTURE
     1 YQ8         1 TEMP              0 ****  ****    0 ROOT
