@<TRIPOS>MOLECULE
YQB
   56    59     1     0     0
SMALL
No Charge or Current Charge


@<TRIPOS>ATOM
      1 C1          -7.7340    21.4320   -59.4810 c3         1 YQB      -0.090100
      2 C10         -8.3440    17.3400   -56.8870 c          1 YQB       0.721600
      3 C13         -6.9190    19.2030   -60.4180 cc         1 YQB      -0.142300
      4 C14         -8.1100    18.5010   -60.5040 cd         1 YQB      -0.018000
      5 C15         -8.3120    17.4930   -61.4950 cd         1 YQB      -0.128300
      6 C16         -7.2680    17.2520   -62.3530 cc         1 YQB      -0.090000
      7 C18         -5.0150    17.5890   -63.2190 c          1 YQB       0.552000
      8 C2          -6.7410    20.2630   -59.3330 c3         1 YQB       0.303800
      9 C20         -3.7800    18.3500   -63.0540 cc         1 YQB      -0.340900
     10 C21         -3.6500    19.3140   -62.0880 cd         1 YQB       0.527600
     11 C23         -5.8250    18.9250   -61.3430 cc         1 YQB       0.146000
     12 C25         -1.2540    19.3620   -61.3890 c6         1 YQB       0.221800
     13 C26         -1.0990    19.5180   -59.8560 c6         1 YQB      -0.102400
     14 C27         -1.1090    21.0080   -59.4400 c6         1 YQB      -0.074400
     15 C28         -2.3840    21.7030   -59.9730 c6         1 YQB      -0.102400
     16 C29         -2.5450    21.4960   -61.5020 c6         1 YQB       0.221800
     17 C4          -6.1810    18.5450   -57.5710 ca         1 YQB       0.341000
     18 C5          -4.7790    18.5640   -57.6840 ca         1 YQB      -0.233000
     19 C6          -4.0100    17.4730   -57.2590 ca         1 YQB      -0.088000
     20 C7          -4.6470    16.3530   -56.7120 ca         1 YQB      -0.200000
     21 C8          -6.0460    16.3230   -56.5910 ca         1 YQB      -0.048000
     22 C9          -6.8360    17.4190   -57.0170 ca         1 YQB      -0.215600
     23 N17         -6.0350    17.9210   -62.3050 n          1 YQB       0.017200
     24 N22         -4.6930    19.6180   -61.2310 nd         1 YQB      -0.460600
     25 N24         -2.4840    20.0510   -61.8660 nh         1 YQB      -0.659400
     26 N3          -6.9030    19.6430   -58.0150 nu         1 YQB      -0.992200
     27 N31         -1.8790    17.8070   -64.7180 n1         1 YQB      -0.526000
     28 O11         -8.8530    16.2360   -56.7570 o          1 YQB      -0.723500
     29 O12         -9.0040    18.3710   -56.8990 o          1 YQB      -0.723500
     30 O19         -5.1540    16.7270   -64.0840 o          1 YQB      -0.548000
     31 H1          -7.5460    22.1950   -58.7170 hc         1 YQB       0.040033
     32 H2          -7.6180    21.9020   -60.4650 hc         1 YQB       0.040033
     33 H3          -8.7720    21.0940   -59.3820 hc         1 YQB       0.040033
     34 H4          -8.9130    18.7130   -59.8030 ha         1 YQB       0.166000
     35 H5          -7.3140    16.5100   -63.1400 h4         1 YQB       0.165000
     36 H6          -5.7390    20.7090   -59.3800 h1         1 YQB       0.070700
     37 H8          -1.2820    18.2900   -61.6330 h1         1 YQB       0.061450
     38 H9          -0.3710    19.7840   -61.8910 h1         1 YQB       0.061450
     39 H10         -1.9170    18.9860   -59.3510 hc         1 YQB       0.053700
     40 H11         -0.1650    19.0420   -59.5280 hc         1 YQB       0.053700
     41 H12         -1.0610    21.0950   -58.3460 hc         1 YQB       0.038200
     42 H13         -0.2170    21.5110   -59.8380 hc         1 YQB       0.038200
     43 H14         -2.3480    22.7770   -59.7470 hc         1 YQB       0.053700
     44 H15         -3.2650    21.3060   -59.4530 hc         1 YQB       0.053700
     45 H16         -1.7400    22.0370   -62.0220 h1         1 YQB       0.061450
     46 H17         -3.4920    21.9450   -61.8350 h1         1 YQB       0.061450
     47 H18         -9.8870    16.3200   -60.5990 hc         1 YQB       0.049033
     48 H19        -10.4300    17.4010   -61.8950 hc         1 YQB       0.049033
     49 H20         -9.5600    15.9100   -62.2890 hc         1 YQB       0.049033
     50 H21         -4.2790    19.4310   -58.1040 ha         1 YQB       0.091000
     51 H22         -2.9270    17.4970   -57.3510 ha         1 YQB       0.080000
     52 H23         -4.0570    15.5020   -56.3790 ha         1 YQB       0.089000
     53 H24         -6.5170    15.4400   -56.1620 ha         1 YQB       0.125000
     54 H25         -7.8810    19.5450   -57.7100 hn         1 YQB       0.550000
     55 C30         -2.7480    18.0500   -63.9790 cg         1 YQB       0.349700
     56 C32         -9.6150    16.7400   -61.5750 c3         1 YQB      -0.038800
@<TRIPOS>BOND
     1     1     8 1   
     2     1    31 1   
     3     1    32 1   
     4     1    33 1   
     5     2    22 1   
     6     2    28 1   
     7     2    29 1   
     8     3     4 2   
     9     3     8 1   
    10     3    11 1   
    11     4     5 1   
    12     4    34 1   
    13     5     6 2   
    14     5    56 1   
    15     6    23 1   
    16     6    35 1   
    17     7     9 1   
    18     7    23 1   
    19     7    30 2   
    20     8    26 1   
    21     8    36 1   
    22     9    10 2   
    23     9    55 1   
    24    10    24 1   
    25    10    25 1   
    26    11    23 1   
    27    11    24 2   
    28    12    13 1   
    29    12    25 1   
    30    12    37 1   
    31    12    38 1   
    32    13    14 1   
    33    13    39 1   
    34    13    40 1   
    35    14    15 1   
    36    14    41 1   
    37    14    42 1   
    38    15    16 1   
    39    15    43 1   
    40    15    44 1   
    41    16    25 1   
    42    16    45 1   
    43    16    46 1   
    44    17    18 ar  
    45    17    22 ar  
    46    17    26 1   
    47    18    19 ar  
    48    18    50 1   
    49    19    20 ar  
    50    19    51 1   
    51    20    21 ar  
    52    20    52 1   
    53    21    22 ar  
    54    21    53 1   
    55    26    54 1   
    56    27    55 3   
    57    47    56 1   
    58    48    56 1   
    59    49    56 1   
@<TRIPOS>SUBSTRUCTURE
     1 YQB         1 TEMP              0 ****  ****    0 ROOT
