@<TRIPOS>MOLECULE
YQB
   56    59     1     0     0
SMALL
abcg2


@<TRIPOS>ATOM
      1 C1          -7.0670    21.1530   -59.7010 c3         1 YQB      -0.090100
      2 C10         -9.2410    18.3290   -56.1540 c          1 YQB       0.721600
      3 C13         -6.6170    18.7920   -60.3700 cc         1 YQB      -0.142300
      4 C14         -7.6300    17.8910   -60.4780 cd         1 YQB      -0.018000
      5 C15         -7.7060    16.9710   -61.5560 cd         1 YQB      -0.128300
      6 C16         -6.7320    17.0220   -62.4940 cc         1 YQB      -0.090000
      7 C18         -4.7570    17.9590   -63.4820 c          1 YQB       0.552000
      8 C2          -6.5420    19.7980   -59.2340 c3         1 YQB       0.303800
      9 C20         -3.7060    18.8980   -63.3170 cc         1 YQB      -0.340900
     10 C21         -3.6110    19.6910   -62.1460 cd         1 YQB       0.527600
     11 C23         -5.5960    18.8100   -61.3670 cc         1 YQB       0.146000
     12 C25         -1.2210    20.3210   -62.3180 c6         1 YQB       0.221800
     13 C26         -0.3500    19.9900   -61.1070 c6         1 YQB      -0.102400
     14 C27         -0.4630    21.0430   -60.0120 c6         1 YQB      -0.074400
     15 C28         -1.9230    21.2740   -59.6440 c6         1 YQB      -0.102400
     16 C29         -2.7320    21.5870   -60.8920 c6         1 YQB       0.221800
     17 C4          -6.9180    18.3090   -57.2980 ca         1 YQB       0.341000
     18 C5          -5.6550    17.7020   -57.4210 ca         1 YQB      -0.233000
     19 C6          -5.2830    16.6510   -56.6010 ca         1 YQB      -0.088000
     20 C7          -6.1560    16.1620   -55.6380 ca         1 YQB      -0.200000
     21 C8          -7.4090    16.7440   -55.5240 ca         1 YQB      -0.048000
     22 C9          -7.8250    17.7990   -56.3330 ca         1 YQB      -0.215600
     23 N17         -5.7030    17.9240   -62.4060 n          1 YQB       0.017200
     24 N22         -4.5880    19.6440   -61.2400 nd         1 YQB      -0.460600
     25 N24         -2.6000    20.5410   -61.9010 nh         1 YQB      -0.659400
     26 N3          -7.2680    19.3830   -58.0700 nu         1 YQB      -0.992200
     27 N31         -2.3030    19.2570   -65.4350 n1         1 YQB      -0.526000
     28 O11         -9.8970    17.8890   -55.1960 o          1 YQB      -0.723500
     29 O12         -9.6590    19.1660   -56.9970 o          1 YQB      -0.723500
     30 O19         -4.9240    17.2360   -64.4470 o          1 YQB      -0.548000
     31 H1          -6.9510    21.8950   -58.9110 hc         1 YQB       0.040033
     32 H2          -6.5180    21.4980   -60.5750 hc         1 YQB       0.040033
     33 H3          -8.1240    21.0900   -59.9650 hc         1 YQB       0.040033
     34 H4          -8.4040    17.8680   -59.7190 ha         1 YQB       0.166000
     35 H5          -6.7050    16.3710   -63.3540 h4         1 YQB       0.165000
     36 H6          -5.4870    19.9320   -58.9790 h1         1 YQB       0.070700
     37 H8          -1.1540    19.5050   -63.0290 h1         1 YQB       0.061450
     38 H9          -0.8540    21.2220   -62.8180 h1         1 YQB       0.061450
     39 H10         -0.6510    19.0140   -60.7150 hc         1 YQB       0.053700
     40 H11          0.6830    19.8920   -61.4460 hc         1 YQB       0.053700
     41 H12          0.1120    20.7380   -59.1360 hc         1 YQB       0.038200
     42 H13         -0.0250    21.9830   -60.3620 hc         1 YQB       0.038200
     43 H14         -2.0210    22.1030   -58.9400 hc         1 YQB       0.053700
     44 H15         -2.3390    20.3870   -59.1570 hc         1 YQB       0.053700
     45 H16         -2.3600    22.5110   -61.3470 h1         1 YQB       0.061450
     46 H17         -3.7820    21.7370   -60.6610 h1         1 YQB       0.061450
     47 H18         -8.8520    15.3510   -60.7540 hc         1 YQB       0.049033
     48 H19         -9.7890    16.4930   -61.7050 hc         1 YQB       0.049033
     49 H20         -8.7270    15.3400   -62.5140 hc         1 YQB       0.049033
     50 H21         -4.9500    18.0570   -58.1600 ha         1 YQB       0.091000
     51 H22         -4.3010    16.2110   -56.7220 ha         1 YQB       0.080000
     52 H23         -5.8690    15.3390   -54.9960 ha         1 YQB       0.089000
     53 H24         -8.1050    16.3680   -54.7860 ha         1 YQB       0.125000
     54 H25         -8.2580    19.6140   -57.9800 hn         1 YQB       0.550000
     55 C30         -2.9150    19.0920   -64.4680 cg         1 YQB       0.349700
     56 C32         -8.8260    15.9840   -61.6420 c3         1 YQB      -0.038800
@<TRIPOS>BOND
     1     1     8 1   
     2     1    31 1   
     3     1    32 1   
     4     1    33 1   
     5     2    22 1   
     6     2    28 1   
     7     2    29 1   
     8     3     4 2   
     9     3     8 1   
    10     3    11 1   
    11     4     5 1   
    12     4    34 1   
    13     5     6 2   
    14     5    56 1   
    15     6    23 1   
    16     6    35 1   
    17     7     9 1   
    18     7    23 1   
    19     7    30 2   
    20     8    26 1   
    21     8    36 1   
    22     9    10 2   
    23     9    55 1   
    24    10    24 1   
    25    10    25 1   
    26    11    23 1   
    27    11    24 2   
    28    12    13 1   
    29    12    25 1   
    30    12    37 1   
    31    12    38 1   
    32    13    14 1   
    33    13    39 1   
    34    13    40 1   
    35    14    15 1   
    36    14    41 1   
    37    14    42 1   
    38    15    16 1   
    39    15    43 1   
    40    15    44 1   
    41    16    25 1   
    42    16    45 1   
    43    16    46 1   
    44    17    18 ar  
    45    17    22 ar  
    46    17    26 1   
    47    18    19 ar  
    48    18    50 1   
    49    19    20 ar  
    50    19    51 1   
    51    20    21 ar  
    52    20    52 1   
    53    21    22 ar  
    54    21    53 1   
    55    26    54 1   
    56    27    55 3   
    57    47    56 1   
    58    48    56 1   
    59    49    56 1   
@<TRIPOS>SUBSTRUCTURE
     1 YQB         1 TEMP              0 ****  ****    0 ROOT
