@<TRIPOS>MOLECULE
YQC
   55    59     1     0     0
SMALL
abcg2


@<TRIPOS>ATOM
      1 C10         14.2120    15.1880    19.3040 cc         1 YQC       0.187800
      2 C15          9.4020    11.5400    21.4790 ca         1 YQC      -0.077000
      3 C16          9.1650    11.6450    22.8500 ca         1 YQC      -0.100500
      4 C17          7.9380    12.1480    23.2750 ca         1 YQC      -0.094000
      5 C18          6.9790    12.5330    22.3530 ca         1 YQC      -0.106000
      6 C19          7.2480    12.4220    21.0000 ca         1 YQC       0.123000
      7 C21         10.1880    11.2410    23.8160 cc         1 YQC       0.296500
      8 C22         10.1240    11.2520    25.2240 cc         1 YQC      -0.213000
      9 C23         11.3480    10.7800    25.6270 cd         1 YQC      -0.178000
     10 C27         14.5540    17.3760    18.1060 c3         1 YQC      -0.025100
     11 C28         15.2520    16.7140    16.9530 ca         1 YQC      -0.096300
     12 C1           8.4650    11.9280    20.5330 ca         1 YQC      -0.103300
     13 C12         12.3180    13.8140    19.0750 cc         1 YQC       0.688400
     14 C14         14.7220    16.5870    19.4180 c3         1 YQC      -0.052200
     15 C2           8.7370    11.8240    19.0460 c3         1 YQC       0.276100
     16 C29         16.6300    16.8470    16.7900 ca         1 YQC      -0.103000
     17 C30         17.2910    16.1900    15.7610 ca         1 YQC      -0.104500
     18 C31         16.5810    15.3880    14.8760 ca         1 YQC      -0.102000
     19 C32         15.2070    15.2520    15.0260 ca         1 YQC      -0.104500
     20 C33         14.5500    15.9100    16.0580 ca         1 YQC      -0.103000
     21 C4          11.1480    12.1190    18.8410 cd         1 YQC       0.802900
     22 C7          14.5220    12.7640    19.0330 c          1 YQC       0.565000
     23 C9          15.0230    14.1040    19.2160 cd         1 YQC      -0.384200
     24 N11         12.8580    15.0370    19.2360 na         1 YQC      -0.764900
     25 N13         11.0600    13.4680    19.0010 nd         1 YQC      -0.770000
     26 N24         12.0530    10.5200    24.5110 na         1 YQC       0.140800
     27 N25         11.3690    10.7930    23.4100 nd         1 YQC      -0.514800
     28 N3          10.0440    11.3480    18.6890 nu         1 YQC      -0.909100
     29 N5          12.3670    11.6230    18.8190 nc         1 YQC      -0.565800
     30 N6          13.1280    12.7380    18.9690 n          1 YQC      -0.060500
     31 O8          15.1750    11.7460    18.9330 o          1 YQC      -0.476000
     32 H41         10.3510    11.1380    21.1490 ha         1 YQC       0.137000
     33 H42          7.7150    12.2480    24.3290 ha         1 YQC       0.118000
     34 H43          6.0270    12.9210    22.6880 ha         1 YQC       0.127000
     35 H44          9.3070    11.5550    25.8580 ha         1 YQC       0.144000
     36 H45         11.7580    10.6110    26.6100 h4         1 YQC       0.153000
     37 H48         13.6500     9.8600    23.3860 h1         1 YQC       0.060367
     38 H47         14.1070    10.7170    24.8660 h1         1 YQC       0.060367
     39 H46         13.4820     9.0600    24.9560 h1         1 YQC       0.060367
     40 H50         13.4920    17.5020    17.8840 hc         1 YQC       0.053200
     41 H49         14.9580    18.3760    18.2720 hc         1 YQC       0.053200
     42 H40         14.1940    17.1080    20.2210 hc         1 YQC       0.067700
     43 H39         15.7750    16.5530    19.6960 hc         1 YQC       0.067700
     44 H35          8.0090    11.1500    18.5910 h1         1 YQC       0.075200
     45 H34          8.5730    12.7980    18.5820 h1         1 YQC       0.075200
     46 H51         17.1910    17.4710    17.4770 ha         1 YQC       0.110000
     47 H52         18.3610    16.3060    15.6490 ha         1 YQC       0.116000
     48 H53         17.0950    14.8760    14.0730 ha         1 YQC       0.116000
     49 H54         14.6450    14.6320    14.3390 ha         1 YQC       0.116000
     50 H55         13.4770    15.7980    16.1690 ha         1 YQC       0.110000
     51 H37         16.0930    14.2380    19.2620 ha         1 YQC       0.223000
     52 H38         12.2390    15.8320    19.3210 hn         1 YQC       0.534000
     53 H36         10.1980    10.3530    18.7310 hn         1 YQC       0.496000
     54 CL20         6.0260    12.9110    19.8670 cl         1 YQC      -0.213000
     55 C26         13.4030    10.0100    24.4310 c3         1 YQC       0.066900
@<TRIPOS>BOND
     1     1    14 1   
     2     1    23 2   
     3     1    24 1   
     4     2     3 ar  
     5     2    12 ar  
     6     2    32 1   
     7     3     4 ar  
     8     3     7 1   
     9     4     5 ar  
    10     4    33 1   
    11     5     6 ar  
    12     5    34 1   
    13     6    12 ar  
    14     6    54 1   
    15     7     8 1   
    16     7    27 2   
    17     8     9 2   
    18     8    35 1   
    19     9    26 1   
    20     9    36 1   
    21    10    11 1   
    22    10    14 1   
    23    10    40 1   
    24    10    41 1   
    25    11    16 ar  
    26    11    20 ar  
    27    12    15 1   
    28    13    24 1   
    29    13    25 2   
    30    13    30 1   
    31    14    42 1   
    32    14    43 1   
    33    15    28 1   
    34    15    44 1   
    35    15    45 1   
    36    16    17 ar  
    37    16    46 1   
    38    17    18 ar  
    39    17    47 1   
    40    18    19 ar  
    41    18    48 1   
    42    19    20 ar  
    43    19    49 1   
    44    20    50 1   
    45    21    25 1   
    46    21    28 1   
    47    21    29 2   
    48    22    23 1   
    49    22    30 1   
    50    22    31 2   
    51    23    51 1   
    52    24    52 1   
    53    26    27 1   
    54    26    55 1   
    55    28    53 1   
    56    29    30 1   
    57    37    55 1   
    58    38    55 1   
    59    39    55 1   
@<TRIPOS>SUBSTRUCTURE
     1 YQC         1 TEMP              0 ****  ****    0 ROOT
