@<TRIPOS>MOLECULE
YQC
   55    59     1     0     0
SMALL
No Charge or Current Charge


@<TRIPOS>ATOM
      1 C10         14.0120    16.0090    18.5910 cc         1 YQC       0.187800
      2 C15          9.6250    11.0380    22.0480 ca         1 YQC      -0.077000
      3 C16          9.4320    11.3610    23.4120 ca         1 YQC      -0.100500
      4 C17          8.8420    12.6050    23.7270 ca         1 YQC      -0.094000
      5 C18          8.4560    13.4900    22.7080 ca         1 YQC      -0.106000
      6 C19          8.6530    13.1600    21.3590 ca         1 YQC       0.123000
      7 C21          9.8400    10.4150    24.4700 cc         1 YQC       0.296500
      8 C22          9.6990    10.6270    25.8560 cc         1 YQC      -0.213000
      9 C23         10.1900     9.5300    26.4920 cd         1 YQC      -0.178000
     10 C27         13.9970    17.8450    16.8330 c3         1 YQC      -0.025100
     11 C28         15.0370    17.1430    15.9680 ca         1 YQC      -0.096300
     12 C1           9.2490    11.9250    21.0160 ca         1 YQC      -0.103300
     13 C12         12.6890    14.0780    18.8910 cc         1 YQC       0.688400
     14 C14         14.1400    17.4850    18.3280 c3         1 YQC      -0.052200
     15 C2           9.4890    11.5120    19.5620 c3         1 YQC       0.276100
     16 C29         16.3360    17.6740    15.8490 ca         1 YQC      -0.103000
     17 C30         17.3020    17.0160    15.0670 ca         1 YQC      -0.104500
     18 C31         16.9740    15.8230    14.4010 ca         1 YQC      -0.102000
     19 C32         15.6800    15.2880    14.5170 ca         1 YQC      -0.104500
     20 C33         14.7150    15.9460    15.2980 ca         1 YQC      -0.103000
     21 C4          11.8440    12.2690    19.1730 cd         1 YQC       0.802900
     22 C7          15.0260    13.6900    18.9750 c          1 YQC       0.565000
     23 C9          15.0850    15.1420    18.7440 cd         1 YQC      -0.384200
     24 N11         12.7420    15.4200    18.6800 na         1 YQC      -0.764900
     25 N13         11.4890    13.5780    18.9550 nd         1 YQC      -0.770000
     26 N24         10.6110     8.6940    25.4580 na         1 YQC       0.140800
     27 N25         10.3930     9.2440    24.2030 nd         1 YQC      -0.514800
     28 N3          10.9240    11.3130    19.3060 nu         1 YQC      -0.909100
     29 N5          13.1340    12.0170    19.2200 nc         1 YQC      -0.565800
     30 N6          13.7220    13.2360    19.0340 n          1 YQC      -0.060500
     31 O8          16.0120    12.9760    19.0970 o          1 YQC      -0.476000
     32 H41         10.0750    10.0850    21.7780 ha         1 YQC       0.137000
     33 H42          8.6710    12.9000    24.7580 ha         1 YQC       0.118000
     34 H43          7.9980    14.4420    22.9670 ha         1 YQC       0.127000
     35 H44          9.2760    11.5060    26.3290 ha         1 YQC       0.144000
     36 H45         10.2750     9.2800    27.5440 h4         1 YQC       0.153000
     37 H48         10.6000     6.6190    25.0980 h1         1 YQC       0.060367
     38 H47         12.2220     7.3740    25.1500 h1         1 YQC       0.060367
     39 H46         11.3090     7.1110    26.6650 h1         1 YQC       0.060367
     40 H50         12.9850    17.5870    16.4970 hc         1 YQC       0.053200
     41 H49         14.0860    18.9330    16.7190 hc         1 YQC       0.053200
     42 H40         13.3840    18.0320    18.9020 hc         1 YQC       0.067700
     43 H39         15.1120    17.8420    18.6890 hc         1 YQC       0.067700
     44 H35          8.9450    10.5760    19.3730 h1         1 YQC       0.075200
     45 H34          9.0810    12.2520    18.8620 h1         1 YQC       0.075200
     46 H51         16.5990    18.5940    16.3650 ha         1 YQC       0.110000
     47 H52         18.3040    17.4310    14.9790 ha         1 YQC       0.116000
     48 H53         17.7220    15.3140    13.7960 ha         1 YQC       0.116000
     49 H54         15.4260    14.3630    14.0040 ha         1 YQC       0.116000
     50 H55         13.7170    15.5210    15.3890 ha         1 YQC       0.110000
     51 H37         16.0980    15.5190    18.6800 ha         1 YQC       0.223000
     52 H38         11.8730    15.9310    18.5900 hn         1 YQC       0.534000
     53 H36         11.3380    10.4130    19.5230 hn         1 YQC       0.496000
     54 Cl20         8.1240    14.3210    20.1400 cl         1 YQC      -0.213000
     55 C26         11.2240     7.3670    25.6020 c3         1 YQC       0.066900
@<TRIPOS>BOND
     1     1    14 1   
     2     1    23 2   
     3     1    24 1   
     4     2     3 ar  
     5     2    12 ar  
     6     2    32 1   
     7     3     4 ar  
     8     3     7 1   
     9     4     5 ar  
    10     4    33 1   
    11     5     6 ar  
    12     5    34 1   
    13     6    12 ar  
    14     6    54 1   
    15     7     8 1   
    16     7    27 2   
    17     8     9 2   
    18     8    35 1   
    19     9    26 1   
    20     9    36 1   
    21    10    11 1   
    22    10    14 1   
    23    10    40 1   
    24    10    41 1   
    25    11    16 ar  
    26    11    20 ar  
    27    12    15 1   
    28    13    24 1   
    29    13    25 2   
    30    13    30 1   
    31    14    42 1   
    32    14    43 1   
    33    15    28 1   
    34    15    44 1   
    35    15    45 1   
    36    16    17 ar  
    37    16    46 1   
    38    17    18 ar  
    39    17    47 1   
    40    18    19 ar  
    41    18    48 1   
    42    19    20 ar  
    43    19    49 1   
    44    20    50 1   
    45    21    25 1   
    46    21    28 1   
    47    21    29 2   
    48    22    23 1   
    49    22    30 1   
    50    22    31 2   
    51    23    51 1   
    52    24    52 1   
    53    26    27 1   
    54    26    55 1   
    55    28    53 1   
    56    29    30 1   
    57    37    55 1   
    58    38    55 1   
    59    39    55 1   
@<TRIPOS>SUBSTRUCTURE
     1 YQC         1 TEMP              0 ****  ****    0 ROOT
