@<TRIPOS>MOLECULE
YQD
   44    47     1     0     0
SMALL
No Charge or Current Charge


@<TRIPOS>ATOM
      1 N1          16.6310    21.6780    -2.5790 ns         1 YQD      -0.511600
      2 N3          18.0990    23.2440     0.4010 nc         1 YQD      -0.478800
      3 C4          15.4900    19.5180    -2.7510 ca         1 YQD      -0.162000
      4 C5          16.1550    20.4920    -1.9960 ca         1 YQD       0.106600
      5 C6          16.3690    20.3080    -0.6220 ca         1 YQD      -0.192500
      6 C7          17.2950    22.6950    -1.9380 c          1 YQD       0.600800
      7 C8          17.0710    21.3620     0.1070 cc         1 YQD       0.518000
      8 C13         12.9660    15.5650     0.9580 ca         1 YQD      -0.115000
      9 C15         15.2230    14.6830     0.8540 ca         1 YQD      -0.103000
     10 C17         12.3600    17.8520     0.0630 c3         1 YQD      -0.053800
     11 C1          15.9070    19.1330     0.0030 ca         1 YQD      -0.008000
     12 C11         14.7430    16.9060    -0.0590 cp         1 YQD      -0.038000
     13 C12         13.3840    16.7520     0.3220 ca         1 YQD      -0.029300
     14 C14         13.8810    14.5360     1.2380 ca         1 YQD       0.242000
     15 C16         15.6510    15.8590     0.2180 ca         1 YQD      -0.079000
     16 C18         15.5120    12.7440     3.5600 c3         1 YQD      -0.339100
     17 C2          15.2280    18.1390    -0.7400 cp         1 YQD      -0.065000
     18 C3          15.0290    18.3460    -2.1290 ca         1 YQD       0.178000
     19 C9          18.0110    22.5740     1.5380 cd         1 YQD       0.552300
     20 N2          17.4950    22.4830    -0.5580 n          1 YQD      -0.056500
     21 N4          17.3570    21.3560     1.3990 nd         1 YQD      -0.685000
     22 N5          13.4380    13.3710     1.8560 nu         1 YQD      -0.886100
     23 O1          17.6710    23.6910    -2.5360 o          1 YQD      -0.479000
     24 O2          13.3350    14.1000     4.2350 o          1 YQD      -0.535000
     25 O3          13.0960    11.6510     3.6110 o          1 YQD      -0.535000
     26 S1          13.7480    12.9480     3.4320 s6         1 YQD       1.168100
     27 Cl1         14.2140    17.1380    -3.1210 cl         1 YQD      -0.172000
     28 H1          16.4790    21.8160    -3.5730 hn         1 YQD       0.466000
     29 H2          15.3300    19.6600    -3.8160 ha         1 YQD       0.140000
     30 H3          18.0980    24.0420     3.1010 hc         1 YQD       0.060700
     31 H4          18.3790    22.3800     3.6490 hc         1 YQD       0.060700
     32 H5          19.6450    23.2430     2.7580 hc         1 YQD       0.060700
     33 H6          11.9260    15.4470     1.2470 ha         1 YQD       0.123000
     34 H7          15.9340    13.8820     1.0300 ha         1 YQD       0.127000
     35 H8          12.1110    17.9130    -1.0030 hc         1 YQD       0.050700
     36 H9          11.4260    17.6770     0.6100 hc         1 YQD       0.050700
     37 H10         12.7410    18.8310     0.3760 hc         1 YQD       0.050700
     38 H11         16.0670    18.9820     1.0690 ha         1 YQD       0.152000
     39 H12         16.6930    15.9600    -0.0760 ha         1 YQD       0.124000
     40 H13         15.7240    12.3770     4.5690 h1         1 YQD       0.105700
     41 H14         15.8160    12.0170     2.8010 h1         1 YQD       0.105700
     42 H15         15.9740    13.7220     3.3950 h1         1 YQD       0.105700
     43 H16         12.4360    13.2370     1.8200 hn         1 YQD       0.493000
     44 C10         18.5630    23.0870     2.8320 c3         1 YQD      -0.118400
@<TRIPOS>BOND
     1     1     4 1   
     2     1     6 1   
     3     1    28 1   
     4     2    19 2   
     5     2    20 1   
     6     3     4 ar  
     7     3    18 ar  
     8     3    29 1   
     9     4     5 ar  
    10     5     7 1   
    11     5    11 ar  
    12     6    20 1   
    13     6    23 2   
    14     7    20 1   
    15     7    21 2   
    16     8    13 ar  
    17     8    14 ar  
    18     8    33 1   
    19     9    14 ar  
    20     9    15 ar  
    21     9    34 1   
    22    10    13 1   
    23    10    35 1   
    24    10    36 1   
    25    10    37 1   
    26    11    17 ar  
    27    11    38 1   
    28    12    13 ar  
    29    12    15 ar  
    30    12    17 1   
    31    14    22 1   
    32    15    39 1   
    33    16    26 1   
    34    16    40 1   
    35    16    41 1   
    36    16    42 1   
    37    17    18 ar  
    38    18    27 1   
    39    19    21 1   
    40    19    44 1   
    41    22    26 1   
    42    22    43 1   
    43    24    26 2   
    44    25    26 2   
    45    30    44 1   
    46    31    44 1   
    47    32    44 1   
@<TRIPOS>SUBSTRUCTURE
     1 YQD         1 TEMP              0 ****  ****    0 ROOT
