@<TRIPOS>MOLECULE
YQD
   44    47     1     0     0
SMALL
abcg2


@<TRIPOS>ATOM
      1 N1          16.4740    21.7290    -2.4610 ns         1 YQD      -0.511600
      2 N3          18.0420    23.2510     0.3520 nc         1 YQD      -0.478800
      3 C4          15.3890    19.5900    -2.6670 ca         1 YQD      -0.162000
      4 C5          16.0620    20.5370    -1.8990 ca         1 YQD       0.106600
      5 C6          16.3250    20.2760    -0.5520 ca         1 YQD      -0.192500
      6 C7          17.1370    22.7350    -1.8250 c          1 YQD       0.600800
      7 C8          17.0330    21.2920     0.1660 cc         1 YQD       0.518000
      8 C13         13.0930    15.4750     0.8870 ca         1 YQD      -0.115000
      9 C15         15.3470    14.6570     0.7210 ca         1 YQD      -0.103000
     10 C17         12.4260    17.7540     0.0880 c3         1 YQD      -0.053800
     11 C1          15.9030    19.0780     0.0200 ca         1 YQD      -0.008000
     12 C11         14.7860    16.8600    -0.0920 cp         1 YQD      -0.038000
     13 C12         13.4500    16.6760     0.2880 ca         1 YQD      -0.029300
     14 C14         14.0270    14.4670     1.0990 ca         1 YQD       0.242000
     15 C16         15.7190    15.8570     0.1350 ca         1 YQD      -0.079000
     16 C18         15.3490    12.7960     3.7390 c3         1 YQD      -0.339100
     17 C2          15.2240    18.1290    -0.7200 cp         1 YQD      -0.065000
     18 C3          14.9880    18.4120    -2.0720 ca         1 YQD       0.178000
     19 C9          18.0530    22.5730     1.4730 cd         1 YQD       0.552300
     20 N2          17.3880    22.4300    -0.4860 n          1 YQD      -0.056500
     21 N4          17.4410    21.3580     1.4040 nd         1 YQD      -0.685000
     22 N5          13.6460    13.2350     1.7020 nu         1 YQD      -0.886100
     23 O1          17.4760    23.7710    -2.3360 o          1 YQD      -0.479000
     24 O2          13.3290    14.4500     3.9590 o          1 YQD      -0.535000
     25 O3          12.8290    12.0040     3.7130 o          1 YQD      -0.535000
     26 S1          13.6510    13.1560     3.3760 s6         1 YQD       1.168100
     27 CL1         14.1770    17.2430    -3.0480 cl         1 YQD      -0.172000
     28 H1          16.2670    21.8960    -3.4370 hn         1 YQD       0.466000
     29 H2          15.1900    19.7760    -3.7140 ha         1 YQD       0.140000
     30 H3          19.1180    24.0620     2.5580 hc         1 YQD       0.060700
     31 H4          17.9410    23.1530     3.5150 hc         1 YQD       0.060700
     32 H5          19.4610    22.4000     3.0560 hc         1 YQD       0.060700
     33 H6          12.0660    15.3200     1.1970 ha         1 YQD       0.123000
     34 H7          16.0750    13.8700     0.8710 ha         1 YQD       0.127000
     35 H8          12.2450    17.9450    -0.9710 hc         1 YQD       0.050700
     36 H9          11.4750    17.4760     0.5390 hc         1 YQD       0.050700
     37 H10         12.7470    18.6950     0.5360 hc         1 YQD       0.050700
     38 H11         16.1070    18.8940     1.0670 ha         1 YQD       0.152000
     39 H12         16.7490    16.0090    -0.1650 ha         1 YQD       0.124000
     40 H13         15.4360    12.7010     4.8210 h1         1 YQD       0.105700
     41 H14         15.6280    11.8650     3.2540 h1         1 YQD       0.105700
     42 H15         15.9800    13.6110     3.3930 h1         1 YQD       0.105700
     43 H16         12.7710    12.8530     1.3530 hn         1 YQD       0.493000
     44 C10         18.6790    23.0800     2.7170 c3         1 YQD      -0.118400
@<TRIPOS>BOND
     1     1     4 1   
     2     1     6 1   
     3     1    28 1   
     4     2    19 2   
     5     2    20 1   
     6     3     4 ar  
     7     3    18 ar  
     8     3    29 1   
     9     4     5 ar  
    10     5     7 1   
    11     5    11 ar  
    12     6    20 1   
    13     6    23 2   
    14     7    20 1   
    15     7    21 2   
    16     8    13 ar  
    17     8    14 ar  
    18     8    33 1   
    19     9    14 ar  
    20     9    15 ar  
    21     9    34 1   
    22    10    13 1   
    23    10    35 1   
    24    10    36 1   
    25    10    37 1   
    26    11    17 ar  
    27    11    38 1   
    28    12    13 ar  
    29    12    15 ar  
    30    12    17 1   
    31    14    22 1   
    32    15    39 1   
    33    16    26 1   
    34    16    40 1   
    35    16    41 1   
    36    16    42 1   
    37    17    18 ar  
    38    18    27 1   
    39    19    21 1   
    40    19    44 1   
    41    22    26 1   
    42    22    43 1   
    43    24    26 2   
    44    25    26 2   
    45    30    44 1   
    46    31    44 1   
    47    32    44 1   
@<TRIPOS>SUBSTRUCTURE
     1 YQD         1 TEMP              0 ****  ****    0 ROOT
