@<TRIPOS>MOLECULE
YQF
   38    39     1     0     0
SMALL
abcg2


@<TRIPOS>ATOM
      1 N1          73.3410    -7.1940    -0.9550 n          1 YQF      -0.410800
      2 C1          74.5770    -6.5310    -0.5720 c6         1 YQF       0.096000
      3 C2          74.7790    -5.2530    -1.3760 c6         1 YQF      -0.093900
      4 C3          74.7330    -5.5380    -2.8800 c6         1 YQF      -0.012400
      5 C4          73.4440    -6.2880    -3.2260 c6         1 YQF      -0.093900
      6 C5          73.2940    -7.5360    -2.3650 c6         1 YQF       0.096000
      7 C6          74.9030    -4.2920    -3.7100 ca         1 YQF      -0.094300
      8 C7          74.0160    -3.2220    -3.6010 ca         1 YQF      -0.080000
      9 C8          74.1670    -2.0750    -4.3670 ca         1 YQF      -0.150000
     10 C9          75.2230    -2.0070    -5.2560 ca         1 YQF       0.172000
     11 C10         76.1230    -3.0430    -5.3970 ca         1 YQF      -0.150000
     12 C11         75.9520    -4.1810    -4.6180 ca         1 YQF      -0.080000
     13 F1          75.3790    -0.8990    -6.0000 f          1 YQF      -0.178000
     14 C12         72.3170    -7.3230    -0.0840 c          1 YQF       0.610100
     15 C13         71.0570    -8.0020    -0.5980 c3         1 YQF      -0.156400
     16 C14         70.0120    -8.1460     0.5000 c3         1 YQF      -0.136400
     17 C15         68.7680    -8.8500     0.0280 c3         1 YQF       0.294000
     18 F2          68.1580    -8.2070    -0.9820 f          1 YQF      -0.119333
     19 F3          67.8630    -8.9640     1.0120 f          1 YQF      -0.119333
     20 F4          69.0130   -10.0960    -0.4100 f          1 YQF      -0.119333
     21 O1          72.3870    -6.9310     1.0740 o          1 YQF      -0.605100
     22 H2          74.5620    -6.3200     0.4940 h1         1 YQF       0.057200
     23 H1          75.4080    -7.2200    -0.7590 h1         1 YQF       0.057200
     24 H3          74.0040    -4.5310    -1.1030 hc         1 YQF       0.054700
     25 H4          75.7410    -4.8100    -1.1080 hc         1 YQF       0.054700
     26 H5          75.5700    -6.2080    -3.1100 hc         1 YQF       0.050700
     27 H6          72.5770    -5.6390    -3.0710 hc         1 YQF       0.054700
     28 H7          73.4470    -6.5770    -4.2790 hc         1 YQF       0.054700
     29 H9          72.3720    -8.0530    -2.6130 h1         1 YQF       0.057200
     30 H8          74.1120    -8.2320    -2.5800 h1         1 YQF       0.057200
     31 H10         73.1840    -3.2720    -2.9090 ha         1 YQF       0.116000
     32 H11         73.4740    -1.2490    -4.2730 ha         1 YQF       0.133000
     33 H12         76.9430    -2.9690    -6.1010 ha         1 YQF       0.133000
     34 H13         76.6560    -4.9980    -4.7260 ha         1 YQF       0.116000
     35 H14         70.6540    -7.4220    -1.4320 hc         1 YQF       0.072200
     36 H15         71.3170    -8.9830    -1.0020 hc         1 YQF       0.072200
     37 H16         70.4140    -8.7120     1.3420 hc         1 YQF       0.094700
     38 H17         69.7180    -7.1680     0.8840 hc         1 YQF       0.094700
@<TRIPOS>BOND
     1     1     2 1   
     2     1     6 1   
     3     1    14 1   
     4     2     3 1   
     5     2    22 1   
     6     2    23 1   
     7     3     4 1   
     8     3    24 1   
     9     3    25 1   
    10     4     5 1   
    11     4     7 1   
    12     4    26 1   
    13     5     6 1   
    14     5    27 1   
    15     5    28 1   
    16     6    29 1   
    17     6    30 1   
    18     7     8 ar  
    19     7    12 ar  
    20     8     9 ar  
    21     8    31 1   
    22     9    10 ar  
    23     9    32 1   
    24    10    11 ar  
    25    10    13 1   
    26    11    12 ar  
    27    11    33 1   
    28    12    34 1   
    29    14    15 1   
    30    14    21 2   
    31    15    16 1   
    32    15    35 1   
    33    15    36 1   
    34    16    17 1   
    35    16    37 1   
    36    16    38 1   
    37    17    18 1   
    38    17    19 1   
    39    17    20 1   
@<TRIPOS>SUBSTRUCTURE
     1 YQF         1 TEMP              0 ****  ****    0 ROOT
