@<TRIPOS>MOLECULE
YQF
   38    39     1     0     0
SMALL
No Charge or Current Charge


@<TRIPOS>ATOM
      1 N1          73.4070    -7.2530    -0.9410 n          1 YQF      -0.410800
      2 C1          74.6770    -6.5720    -0.5720 c6         1 YQF       0.096000
      3 C2          74.8530    -5.2690    -1.3880 c6         1 YQF      -0.093900
      4 C3          74.7820    -5.5510    -2.9140 c6         1 YQF      -0.012400
      5 C4          73.4760    -6.3210    -3.2540 c6         1 YQF      -0.093900
      6 C5          73.3410    -7.5960    -2.3890 c6         1 YQF       0.096000
      7 C6          74.9270    -4.2670    -3.7450 ca         1 YQF      -0.094300
      8 C7          73.9820    -3.2240    -3.6360 ca         1 YQF      -0.080000
      9 C8          74.1250    -2.0530    -4.4020 ca         1 YQF      -0.150000
     10 C9          75.2120    -1.9200    -5.2780 ca         1 YQF       0.172000
     11 C10         76.1580    -2.9490    -5.3940 ca         1 YQF      -0.150000
     12 C11         76.0160    -4.1210    -4.6300 ca         1 YQF      -0.080000
     13 F1          75.3490    -0.7950    -6.0130 f          1 YQF      -0.178000
     14 C12         72.3060    -7.3230    -0.0510 c          1 YQF       0.610100
     15 C13         71.0140    -8.0300    -0.5120 c3         1 YQF      -0.156400
     16 C14         69.8890    -8.1570     0.5570 c3         1 YQF      -0.136400
     17 C15         68.6130    -8.8710     0.0590 c3         1 YQF       0.294000
     18 F2          68.0590    -8.2100    -0.9830 f          1 YQF      -0.119333
     19 F3          67.6910    -8.9390     1.0450 f          1 YQF      -0.119333
     20 F4          68.8860   -10.1340    -0.3410 f          1 YQF      -0.119333
     21 O1          72.3870    -6.8520     1.0770 o          1 YQF      -0.605100
     22 H2          74.7070    -6.3410     0.5020 h1         1 YQF       0.057200
     23 H1          75.5180    -7.2500    -0.7780 h1         1 YQF       0.057200
     24 H3          74.0720    -4.5550    -1.0950 hc         1 YQF       0.054700
     25 H4          75.8150    -4.8030    -1.1370 hc         1 YQF       0.054700
     26 H5          75.6230    -6.2160    -3.1590 hc         1 YQF       0.050700
     27 H6          72.6000    -5.6800    -3.0890 hc         1 YQF       0.054700
     28 H7          73.4690    -6.5930    -4.3180 hc         1 YQF       0.054700
     29 H9          72.4130    -8.1170    -2.6530 h1         1 YQF       0.057200
     30 H8          74.1660    -8.2830    -2.6270 h1         1 YQF       0.057200
     31 H10         73.1350    -3.3170    -2.9600 ha         1 YQF       0.116000
     32 H11         73.3960    -1.2520    -4.3170 ha         1 YQF       0.133000
     33 H12         76.9970    -2.8380    -6.0760 ha         1 YQF       0.133000
     34 H13         76.7550    -4.9140    -4.7270 ha         1 YQF       0.116000
     35 H14         70.6570    -7.5100    -1.4080 hc         1 YQF       0.072200
     36 H15         71.2960    -9.0060    -0.9210 hc         1 YQF       0.072200
     37 H16         70.2770    -8.7020     1.4270 hc         1 YQF       0.094700
     38 H17         69.6120    -7.1570     0.9120 hc         1 YQF       0.094700
@<TRIPOS>BOND
     1     1     2 1   
     2     1     6 1   
     3     1    14 1   
     4     2     3 1   
     5     2    22 1   
     6     2    23 1   
     7     3     4 1   
     8     3    24 1   
     9     3    25 1   
    10     4     5 1   
    11     4     7 1   
    12     4    26 1   
    13     5     6 1   
    14     5    27 1   
    15     5    28 1   
    16     6    29 1   
    17     6    30 1   
    18     7     8 ar  
    19     7    12 ar  
    20     8     9 ar  
    21     8    31 1   
    22     9    10 ar  
    23     9    32 1   
    24    10    11 ar  
    25    10    13 1   
    26    11    12 ar  
    27    11    33 1   
    28    12    34 1   
    29    14    15 1   
    30    14    21 2   
    31    15    16 1   
    32    15    35 1   
    33    15    36 1   
    34    16    17 1   
    35    16    37 1   
    36    16    38 1   
    37    17    18 1   
    38    17    19 1   
    39    17    20 1   
@<TRIPOS>SUBSTRUCTURE
     1 YQF         1 TEMP              0 ****  ****    0 ROOT
