@<TRIPOS>MOLECULE
YQG
   48    52     1     0     0
SMALL
abcg2


@<TRIPOS>ATOM
      1 N1         -21.5060   -39.0520     2.1210 ns         1 YQG      -0.511600
      2 N3         -22.3400   -40.7440    -0.9020 nc         1 YQG      -0.476800
      3 C4         -19.5190   -37.8290     2.7200 ca         1 YQG      -0.161000
      4 C5         -20.2530   -38.5710     1.7990 ca         1 YQG       0.108600
      5 C6         -19.7120   -38.8360     0.5380 ca         1 YQG      -0.193500
      6 C7         -22.3190   -39.7930     1.3170 c          1 YQG       0.600800
      7 C8         -20.5210   -39.6140    -0.3520 cc         1 YQG       0.519000
      8 C13        -14.9570   -35.3260    -0.0950 ca         1 YQG      -0.094000
      9 C15        -14.0400   -37.5180     0.2960 ca         1 YQG      -0.132000
     10 C17        -17.3770   -34.8020     0.2750 c3         1 YQG      -0.054800
     11 C20        -12.7740   -39.1950    -3.3850 cc         1 YQG       0.218900
     12 C1         -18.4530   -38.3470     0.2030 ca         1 YQG      -0.011000
     13 C11        -16.3780   -37.0840     0.7080 cp         1 YQG      -0.045000
     14 C12        -16.2180   -35.7540     0.3000 ca         1 YQG      -0.040300
     15 C14        -13.8770   -36.2000    -0.1080 ca         1 YQG       0.231000
     16 C16        -15.2890   -37.9470     0.7140 ca         1 YQG      -0.076000
     17 C18        -12.8220   -37.1460    -2.8730 cd         1 YQG       0.164400
     18 C19        -14.0300   -38.7440    -3.7050 cd         1 YQG      -0.188000
     19 C2         -17.7120   -37.5980     1.0980 cp         1 YQG      -0.064000
     20 C3         -18.2720   -37.3620     2.3600 ca         1 YQG       0.180000
     21 C9         -21.4530   -40.7190    -1.8670 cd         1 YQG       0.551300
     22 N2         -21.7400   -40.0360     0.0700 n          1 YQG      -0.055500
     23 N4         -20.3150   -40.0310    -1.5710 nd         1 YQG      -0.691000
     24 N5         -12.6090   -35.7370    -0.5560 nu         1 YQG      -0.856100
     25 N6         -14.0430   -37.4320    -3.3660 na         1 YQG      -0.228500
     26 N7         -12.0330   -38.1860    -2.8600 nc         1 YQG      -0.588000
     27 O1         -23.4090   -40.1990     1.6240 o          1 YQG      -0.477000
     28 O2         -10.9820   -35.3600    -2.3990 o          1 YQG      -0.517000
     29 O3         -13.3840   -34.6420    -2.6900 o          1 YQG      -0.517000
     30 S1         -12.3960   -35.5800    -2.1970 sy         1 YQG       1.109200
     31 CL1        -17.3700   -36.4660     3.5270 cl         1 YQG      -0.168000
     32 H1         -21.8790   -38.8460     3.0400 hn         1 YQG       0.467000
     33 H2         -19.9220   -37.6270     3.7040 ha         1 YQG       0.141000
     34 H3         -20.8960   -42.1460    -3.3390 hc         1 YQG       0.060700
     35 H4         -22.6370   -41.8620    -3.2180 hc         1 YQG       0.060700
     36 H5         -21.5850   -40.6660    -3.9880 hc         1 YQG       0.060700
     37 H6         -14.8140   -34.2960    -0.3940 ha         1 YQG       0.146000
     38 H7         -13.2010   -38.2020     0.2780 ha         1 YQG       0.129000
     39 H8         -18.2150   -35.2050    -0.2940 hc         1 YQG       0.051367
     40 H9         -17.7430   -34.5900     1.2810 hc         1 YQG       0.051367
     41 H10        -17.0910   -33.8530    -0.1770 hc         1 YQG       0.051367
     42 H12        -18.0510   -38.5550    -0.7800 ha         1 YQG       0.146000
     43 H13        -15.4220   -38.9730     1.0330 ha         1 YQG       0.125000
     44 H14        -14.8850   -39.2340    -4.1390 h4         1 YQG       0.166000
     45 H15        -11.8200   -36.2250    -0.1400 hn         1 YQG       0.498000
     46 H16        -14.8190   -36.7940    -3.4760 hn         1 YQG       0.379000
     47 C10        -21.6610   -41.3870    -3.1740 c3         1 YQG      -0.117400
     48 H11        -12.3760   -40.1890    -3.5110 h4         1 YQG       0.047100
@<TRIPOS>BOND
     1     1     4 1   
     2     1     6 1   
     3     1    32 1   
     4     2    21 2   
     5     2    22 1   
     6     3     4 ar  
     7     3    20 ar  
     8     3    33 1   
     9     4     5 ar  
    10     5     7 1   
    11     5    12 ar  
    12     6    22 1   
    13     6    27 2   
    14     7    22 1   
    15     7    23 2   
    16     8    14 ar  
    17     8    15 ar  
    18     8    37 1   
    19     9    15 ar  
    20     9    16 ar  
    21     9    38 1   
    22    10    14 1   
    23    10    39 1   
    24    10    40 1   
    25    10    41 1   
    26    11    18 2   
    27    11    26 1   
    28    11    48 1   
    29    12    19 ar  
    30    12    42 1   
    31    13    14 ar  
    32    13    16 ar  
    33    13    19 1   
    34    15    24 1   
    35    16    43 1   
    36    17    25 1   
    37    17    26 2   
    38    17    30 1   
    39    18    25 1   
    40    18    44 1   
    41    19    20 ar  
    42    20    31 1   
    43    21    23 1   
    44    21    47 1   
    45    24    30 1   
    46    24    45 1   
    47    25    46 1   
    48    28    30 2   
    49    29    30 2   
    50    34    47 1   
    51    35    47 1   
    52    36    47 1   
@<TRIPOS>SUBSTRUCTURE
     1 YQG         1 TEMP              0 ****  ****    0 ROOT
