@<TRIPOS>MOLECULE
YQG
   48    52     1     0     0
SMALL
No Charge or Current Charge


@<TRIPOS>ATOM
      1 N1         -21.4830   -39.2080     2.3670 ns         1 YQG      -0.511600
      2 N3         -22.3770   -40.7450    -0.8460 nc         1 YQG      -0.476800
      3 C4         -19.4410   -37.9880     2.9480 ca         1 YQG      -0.161000
      4 C5         -20.2210   -38.6940     2.0240 ca         1 YQG       0.108600
      5 C6         -19.7620   -38.9070     0.7170 ca         1 YQG      -0.193500
      6 C7         -22.3300   -39.9110     1.5450 c          1 YQG       0.600800
      7 C8         -20.6260   -39.6510    -0.1980 cc         1 YQG       0.519000
      8 C13        -14.9640   -35.7000    -0.5500 ca         1 YQG      -0.094000
      9 C15        -13.9180   -37.2560     0.9850 ca         1 YQG      -0.132000
     10 C17        -17.4700   -35.4960    -0.7900 c3         1 YQG      -0.054800
     11 C20        -13.3280   -38.8870    -3.6050 cc         1 YQG       0.218900
     12 C1         -18.5030   -38.4080     0.3320 ca         1 YQG      -0.011000
     13 C11        -16.3640   -37.1710     0.8180 cp         1 YQG      -0.045000
     14 C12        -16.2430   -36.1460    -0.1590 ca         1 YQG      -0.040300
     15 C14        -13.7990   -36.2590     0.0070 ca         1 YQG       0.231000
     16 C16        -15.1850   -37.7110     1.3830 ca         1 YQG      -0.076000
     17 C18        -12.7870   -36.9280    -2.8440 cd         1 YQG       0.164400
     18 C19        -14.2680   -38.0360    -4.1170 cd         1 YQG      -0.188000
     19 C2         -17.6960   -37.6900     1.2480 cp         1 YQG      -0.064000
     20 C3         -18.1850   -37.4890     2.5660 ca         1 YQG       0.180000
     21 C9         -21.4980   -40.6390    -1.8290 cd         1 YQG       0.551300
     22 N2         -21.8410   -40.1110     0.2370 n          1 YQG      -0.055500
     23 N4         -20.3550   -39.9420    -1.4600 nd         1 YQG      -0.691000
     24 N5         -12.5290   -35.8370    -0.3790 nu         1 YQG      -0.856100
     25 N6         -13.9240   -36.7820    -3.6360 na         1 YQG      -0.228500
     26 N7         -12.4250   -38.2170    -2.8310 nc         1 YQG      -0.588000
     27 O1         -23.4120   -40.3180     1.9380 o          1 YQG      -0.477000
     28 O2         -10.5200   -35.7620    -1.8150 o          1 YQG      -0.517000
     29 O3         -12.5420   -34.2440    -2.3140 o          1 YQG      -0.517000
     30 S1         -11.9650   -35.5440    -1.9500 sy         1 YQG       1.109200
     31 Cl1        -17.2520   -36.5850     3.7590 cl         1 YQG      -0.168000
     32 H1         -21.8210   -39.0560     3.3120 hn         1 YQG       0.467000
     33 H2         -19.8000   -37.8210     3.9590 ha         1 YQG       0.141000
     34 H3         -21.8620   -42.3010    -3.1380 hc         1 YQG       0.060700
     35 H4         -22.6210   -40.7820    -3.6530 hc         1 YQG       0.060700
     36 H5         -20.8750   -41.0140    -3.8540 hc         1 YQG       0.060700
     37 H6         -14.8800   -34.9030    -1.2830 ha         1 YQG       0.146000
     38 H7         -13.0290   -37.6920     1.4330 ha         1 YQG       0.129000
     39 H8         -17.9020   -36.1420    -1.5640 hc         1 YQG       0.051367
     40 H9         -18.2480   -35.3000    -0.0420 hc         1 YQG       0.051367
     41 H10        -17.2260   -34.5360    -1.2590 hc         1 YQG       0.051367
     42 H12        -18.1370   -38.5750    -0.6790 ha         1 YQG       0.146000
     43 H13        -15.2600   -38.4950     2.1330 ha         1 YQG       0.125000
     44 H14        -15.1180   -38.2280    -4.7630 h4         1 YQG       0.166000
     45 H15        -11.7560   -36.3160     0.0640 hn         1 YQG       0.498000
     46 H16        -14.4030   -35.9060    -3.8240 hn         1 YQG       0.379000
     47 C10        -21.7250   -41.2150    -3.1930 c3         1 YQG      -0.117400
     48 H11        -13.2430   -39.9570    -3.7460 h4         1 YQG       0.047100
@<TRIPOS>BOND
     1     1     4 1   
     2     1     6 1   
     3     1    32 1   
     4     2    21 2   
     5     2    22 1   
     6     3     4 ar  
     7     3    20 ar  
     8     3    33 1   
     9     4     5 ar  
    10     5     7 1   
    11     5    12 ar  
    12     6    22 1   
    13     6    27 2   
    14     7    22 1   
    15     7    23 2   
    16     8    14 ar  
    17     8    15 ar  
    18     8    37 1   
    19     9    15 ar  
    20     9    16 ar  
    21     9    38 1   
    22    10    14 1   
    23    10    39 1   
    24    10    40 1   
    25    10    41 1   
    26    11    18 2   
    27    11    26 1   
    28    11    48 1   
    29    12    19 ar  
    30    12    42 1   
    31    13    14 ar  
    32    13    16 ar  
    33    13    19 1   
    34    15    24 1   
    35    16    43 1   
    36    17    25 1   
    37    17    26 2   
    38    17    30 1   
    39    18    25 1   
    40    18    44 1   
    41    19    20 ar  
    42    20    31 1   
    43    21    23 1   
    44    21    47 1   
    45    24    30 1   
    46    24    45 1   
    47    25    46 1   
    48    28    30 2   
    49    29    30 2   
    50    34    47 1   
    51    35    47 1   
    52    36    47 1   
@<TRIPOS>SUBSTRUCTURE
     1 YQG         1 TEMP              0 ****  ****    0 ROOT
