@<TRIPOS>MOLECULE
YQI
   24    24     1     0     0
SMALL
abcg2


@<TRIPOS>ATOM
      1 C4          -5.7090    -9.5930   -17.2610 c          1 YQI       0.527600
      2 C5          -4.4570    -9.6320   -18.0540 cc         1 YQI       0.219500
      3 C6          -3.7890   -10.7830   -18.5090 cc         1 YQI      -0.170000
      4 C7          -2.7040   -10.2950   -19.1940 cd         1 YQI      -0.214000
      5 C8          -8.6060    -8.3410   -17.2730 c          1 YQI       0.718000
      6 N1          -6.1260    -8.3730   -16.9050 ns         1 YQI      -0.442900
      7 N2          -2.7790    -8.9530   -19.1160 na         1 YQI      -0.007200
      8 C3          -7.4150    -8.1410   -16.2920 c3         1 YQI      -0.040300
      9 N3          -3.8260    -8.5310   -18.4350 nd         1 YQI      -0.519800
     10 C2          -7.4540    -6.7410   -15.6740 c3         1 YQI      -0.063400
     11 O1          -6.2740   -10.6360   -16.9520 o          1 YQI      -0.619100
     12 O3          -8.3490    -8.4700   -18.4820 o          1 YQI      -0.723500
     13 H1          -4.0610   -11.8130   -18.3570 ha         1 YQI       0.155000
     14 H2          -1.9040   -10.7890   -19.7210 h4         1 YQI       0.139000
     15 H3          -5.6290    -7.5880   -17.2970 hn         1 YQI       0.308500
     16 H4          -2.1370    -8.2850   -19.5130 hn         1 YQI       0.357000
     17 H5          -7.5290    -8.8600   -15.4770 h1         1 YQI       0.056700
     18 H6          -7.4330    -4.6350   -16.1570 hc         1 YQI       0.023033
     19 H7          -6.5250    -5.6040   -17.3000 hc         1 YQI       0.023033
     20 H8          -8.2850    -5.6140   -17.3420 hc         1 YQI       0.023033
     21 H9          -6.6210    -6.6390   -14.9730 hc         1 YQI       0.027200
     22 H10         -8.3640    -6.6700   -15.0770 hc         1 YQI       0.027200
     23 C1          -7.4210    -5.5940   -16.6770 c3         1 YQI      -0.081100
     24 O2          -9.7280    -8.3290   -16.7290 o          1 YQI      -0.723500
@<TRIPOS>BOND
     1     1     2 1   
     2     1     6 1   
     3     1    11 2   
     4     2     3 1   
     5     2     9 2   
     6     3     4 2   
     7     3    13 1   
     8     4     7 1   
     9     4    14 1   
    10     5     8 1   
    11     5    12 1   
    12     5    24 1   
    13     6     8 1   
    14     6    15 1   
    15     7     9 1   
    16     7    16 1   
    17     8    10 1   
    18     8    17 1   
    19    10    21 1   
    20    10    22 1   
    21    10    23 1   
    22    18    23 1   
    23    19    23 1   
    24    20    23 1   
@<TRIPOS>SUBSTRUCTURE
     1 YQI         1 TEMP              0 ****  ****    0 ROOT
