@<TRIPOS>MOLECULE
YQI
   24    24     1     0     0
SMALL
No Charge or Current Charge


@<TRIPOS>ATOM
      1 C4          -5.5230    -9.3330   -17.0560 c          1 YQI       0.527600
      2 C5          -4.4240    -9.4740   -18.0750 cc         1 YQI       0.219500
      3 C6          -3.2610   -10.2200   -17.8060 cc         1 YQI      -0.170000
      4 C7          -2.4680   -10.1580   -18.9110 cd         1 YQI      -0.214000
      5 C8          -8.9710    -7.7840   -17.6480 c          1 YQI       0.718000
      6 N1          -6.5860    -8.5660   -17.4990 ns         1 YQI      -0.442900
      7 N2          -3.1890    -9.3680   -19.8150 na         1 YQI      -0.007200
      8 C3          -7.7940    -8.2130   -16.7130 c3         1 YQI      -0.040300
      9 N3          -4.4110    -8.9410   -19.2930 nd         1 YQI      -0.519800
     10 C2          -7.4960    -7.1510   -15.6190 c3         1 YQI      -0.063400
     11 O1          -5.5090    -9.8400   -15.9370 o          1 YQI      -0.619100
     12 O3          -8.7110    -7.2960   -18.7410 o          1 YQI      -0.723500
     13 H1          -3.0550   -10.7430   -16.8770 ha         1 YQI       0.155000
     14 H2          -1.4950   -10.5870   -19.1260 h4         1 YQI       0.139000
     15 H3          -6.5100    -8.2030   -18.4440 hn         1 YQI       0.308500
     16 H4          -2.8950    -9.1090   -20.7570 hn         1 YQI       0.357000
     17 H5          -8.1280    -9.1270   -16.2040 h1         1 YQI       0.056700
     18 H6          -6.7680    -5.1180   -15.3200 hc         1 YQI       0.023033
     19 H7          -6.0080    -5.9500   -16.6890 hc         1 YQI       0.023033
     20 H8          -7.6720    -5.3340   -16.8300 hc         1 YQI       0.023033
     21 H9          -6.7730    -7.5620   -14.9040 hc         1 YQI       0.027200
     22 H10         -8.4150    -6.9600   -15.0510 hc         1 YQI       0.027200
     23 C1          -6.9530    -5.8070   -16.1520 c3         1 YQI      -0.081100
     24 O2         -10.1100    -8.0620   -17.2980 o          1 YQI      -0.723500
@<TRIPOS>BOND
     1     1     2 1   
     2     1     6 1   
     3     1    11 2   
     4     2     3 1   
     5     2     9 2   
     6     3     4 2   
     7     3    13 1   
     8     4     7 1   
     9     4    14 1   
    10     5     8 1   
    11     5    12 1   
    12     5    24 1   
    13     6     8 1   
    14     6    15 1   
    15     7     9 1   
    16     7    16 1   
    17     8    10 1   
    18     8    17 1   
    19    10    21 1   
    20    10    22 1   
    21    10    23 1   
    22    18    23 1   
    23    19    23 1   
    24    20    23 1   
@<TRIPOS>SUBSTRUCTURE
     1 YQI         1 TEMP              0 ****  ****    0 ROOT
