@<TRIPOS>MOLECULE
YQK
   49    51     1     0     0
SMALL
abcg2


@<TRIPOS>ATOM
      1 C10         16.9030    37.0360    25.3780 c          1 YQK       0.532000
      2 C02         13.5520    35.6350    21.3340 cc         1 YQK      -0.068200
      3 C03         13.1150    36.2600    22.5790 cc         1 YQK      -0.090000
      4 C04         13.8590    36.0450    23.7210 cf         1 YQK       0.074600
      5 C05         14.2540    36.1140    26.0140 ce         1 YQK       0.412300
      6 C06         15.3500    35.0720    25.9740 c3         1 YQK      -0.194700
      7 C07         16.8070    35.6230    26.0490 c5         1 YQK       0.215300
      8 C08         17.1910    35.9540    27.4740 ca         1 YQK      -0.081300
      9 C09         17.2990    37.3370    27.6190 ca         1 YQK       0.005000
     10 C11         17.5860    37.9290    28.8360 ca         1 YQK      -0.175000
     11 C12         17.7870    37.0840    29.9310 ca         1 YQK      -0.107000
     12 C13         17.7040    35.7010    29.7980 ca         1 YQK      -0.170000
     13 C14         17.3980    35.1280    28.5590 ca         1 YQK      -0.029000
     14 C15         13.8310    36.6440    27.3790 c          1 YQK       0.621700
     15 C16         11.9020    37.0460    22.4550 cc         1 YQK       0.157100
     16 C17         11.2130    37.1530    21.2820 cd         1 YQK      -0.114200
     17 C18          9.9500    37.9480    21.1350 c3         1 YQK      -0.017900
     18 C19         12.8270    35.7760    20.1960 cd         1 YQK      -0.085000
     19 N20         13.5890    36.5180    24.9780 nf         1 YQK      -0.611300
     20 N21         17.0910    37.9500    26.3760 ns         1 YQK      -0.155000
     21 N22         11.6820    36.5070    20.1620 na         1 YQK      -0.704000
     22 O23         15.5670    31.8070    23.4800 o          1 YQK      -0.916167
     23 O24         16.7110    32.2620    21.2230 o          1 YQK      -0.916167
     24 O25         14.7090    33.6360    22.0320 os         1 YQK      -0.597400
     25 O26         16.8540    37.2940    24.1890 o          1 YQK      -0.516000
     26 O27         13.5420    37.8640    27.4870 o          1 YQK      -0.735500
     27 O28         13.7900    35.7920    28.3090 o          1 YQK      -0.735500
     28 O29         11.4540    37.7000    23.5740 oh         1 YQK      -0.486100
     29 O30         16.9990    33.9070    23.1310 o          1 YQK      -0.916167
     30 O32         17.7170    34.7190    25.4730 oh         1 YQK      -0.746000
     31 P31         16.1020    32.8310    22.4960 p5         1 YQK       1.312900
     32 H011        15.6580    35.4310    21.6570 h1         1 YQK       0.016200
     33 H012        15.0430    34.5940    20.2250 h1         1 YQK       0.016200
     34 H041        14.7230    35.4140    23.5860 h4         1 YQK       0.218000
     35 H061        15.2250    34.3940    26.8170 hc         1 YQK       0.095700
     36 H062        15.2880    34.4870    25.0600 hc         1 YQK       0.095700
     37 H111        17.6590    39.0040    28.9360 ha         1 YQK       0.087000
     38 H121        18.0170    37.5170    30.8970 ha         1 YQK       0.066000
     39 H131        17.8720    35.0660    30.6590 ha         1 YQK       0.076000
     40 H141        17.3200    34.0530    28.4540 ha         1 YQK       0.123000
     41 H182         9.5700    37.8840    20.1170 hc         1 YQK       0.011700
     42 H181         9.1680    37.5810    21.8050 hc         1 YQK       0.011700
     43 H183        10.1140    39.0050    21.3620 hc         1 YQK       0.011700
     44 H191        13.1250    35.3220    19.2620 h4         1 YQK       0.170000
     45 H211        17.2140    38.9370    26.2000 hn         1 YQK       0.133000
     46 H3          10.6460    38.1870    23.3680 ho         1 YQK       0.409000
     47 H321        17.3720    34.4050    24.5730 ho         1 YQK       0.582000
     48 H221        11.1710    36.5920    19.2990 hn         1 YQK       0.449000
     49 C01         14.8230    34.8360    21.2700 c3         1 YQK       0.263800
@<TRIPOS>BOND
     1     1     7 1   
     2     1    20 1   
     3     1    25 2   
     4     2     3 1   
     5     2    18 2   
     6     2    49 1   
     7     3     4 2   
     8     3    15 1   
     9     4    19 1   
    10     4    34 1   
    11     5     6 1   
    12     5    14 1   
    13     5    19 2   
    14     6     7 1   
    15     6    35 1   
    16     6    36 1   
    17     7     8 1   
    18     7    30 1   
    19     8     9 ar  
    20     8    13 ar  
    21     9    10 ar  
    22     9    20 1   
    23    10    11 ar  
    24    10    37 1   
    25    11    12 ar  
    26    11    38 1   
    27    12    13 ar  
    28    12    39 1   
    29    13    40 1   
    30    14    26 1   
    31    14    27 1   
    32    15    16 2   
    33    15    28 1   
    34    16    17 1   
    35    16    21 1   
    36    17    41 1   
    37    17    42 1   
    38    17    43 1   
    39    18    21 1   
    40    18    44 1   
    41    20    45 1   
    42    21    48 1   
    43    22    31 1   
    44    23    31 1   
    45    24    31 1   
    46    24    49 1   
    47    28    46 1   
    48    29    31 1   
    49    30    47 1   
    50    32    49 1   
    51    33    49 1   
@<TRIPOS>SUBSTRUCTURE
     1 YQK         1 TEMP              0 ****  ****    0 ROOT
