@<TRIPOS>MOLECULE
YQK
   49    51     1     0     0
SMALL
No Charge or Current Charge


@<TRIPOS>ATOM
      1 C10         17.0080    36.9020    25.2450 c          1 YQK       0.532000
      2 C02         13.5810    35.6740    21.3270 cc         1 YQK      -0.068200
      3 C03         13.2520    36.4180    22.5300 cc         1 YQK      -0.090000
      4 C04         14.0840    36.3810    23.6370 cf         1 YQK       0.074600
      5 C05         14.1850    36.0700    26.0850 ce         1 YQK       0.412300
      6 C06         15.2740    34.9910    25.9530 c3         1 YQK      -0.194700
      7 C07         16.7320    35.5390    26.0580 c5         1 YQK       0.215300
      8 C08         17.0870    35.9700    27.4860 ca         1 YQK      -0.081300
      9 C09         17.4040    37.3120    27.5260 ca         1 YQK       0.005000
     10 C11         17.7700    37.9720    28.7040 ca         1 YQK      -0.175000
     11 C12         17.8120    37.2160    29.8930 ca         1 YQK      -0.107000
     12 C13         17.4990    35.8380    29.8700 ca         1 YQK      -0.170000
     13 C14         17.1340    35.2020    28.6620 ca         1 YQK      -0.029000
     14 C15         13.5730    36.3280    27.4940 c          1 YQK       0.621700
     15 C16         12.0250    37.1840    22.4550 cc         1 YQK       0.157100
     16 C17         11.1900    37.1720    21.3430 cd         1 YQK      -0.114200
     17 C18          9.9030    37.9660    21.2450 c3         1 YQK      -0.017900
     18 C19         12.7440    35.6620    20.2230 cd         1 YQK      -0.085000
     19 N20         13.7050    36.6490    24.9830 nf         1 YQK      -0.611300
     20 N21         17.3220    37.8070    26.2360 ns         1 YQK      -0.155000
     21 N22         11.5350    36.3770    20.2390 na         1 YQK      -0.704000
     22 O23         15.8260    31.7360    23.2030 o          1 YQK      -0.916167
     23 O24         16.8920    32.5960    21.1970 o          1 YQK      -0.916167
     24 O25         14.8020    33.7300    22.0670 os         1 YQK      -0.597400
     25 O26         17.0330    37.1370    24.0420 o          1 YQK      -0.516000
     26 O27         12.7020    37.1850    27.6290 o          1 YQK      -0.735500
     27 O28         13.9430    35.6610    28.4550 o          1 YQK      -0.735500
     28 O29         11.6820    37.9730    23.4950 oh         1 YQK      -0.486100
     29 O30         17.0020    33.8560    23.2920 o          1 YQK      -0.916167
     30 O32         17.6130    34.4860    25.6270 oh         1 YQK      -0.746000
     31 P31         16.1650    32.9670    22.4410 p5         1 YQK       1.312900
     32 H011        15.7260    35.5360    21.5190 h1         1 YQK       0.016200
     33 H012        15.0540    34.5910    20.1920 h1         1 YQK       0.016200
     34 H041        15.0310    35.8530    23.5030 h4         1 YQK       0.218000
     35 H061        15.1390    34.2450    26.7430 hc         1 YQK       0.095700
     36 H062        15.1260    34.4020    25.0460 hc         1 YQK       0.095700
     37 H111        18.0190    39.0310    28.7020 ha         1 YQK       0.087000
     38 H121        18.0930    37.6930    30.8290 ha         1 YQK       0.066000
     39 H131        17.5380    35.2610    30.7900 ha         1 YQK       0.076000
     40 H141        16.8940    34.1410    28.6420 ha         1 YQK       0.123000
     41 H182         9.3910    37.8020    20.2880 hc         1 YQK       0.011700
     42 H181         9.2040    37.6840    22.0410 hc         1 YQK       0.011700
     43 H183        10.0970    39.0420    21.3310 hc         1 YQK       0.011700
     44 H191        12.9740    35.1040    19.3170 h4         1 YQK       0.170000
     45 H211        17.5920    38.7590    26.0210 hn         1 YQK       0.133000
     46 H3          10.8370    38.3940    23.2450 ho         1 YQK       0.409000
     47 H321        17.3510    34.2510    24.6580 ho         1 YQK       0.582000
     48 H221        10.9150    36.3440    19.4260 hn         1 YQK       0.449000
     49 C01         14.8840    34.8910    21.2350 c3         1 YQK       0.263800
@<TRIPOS>BOND
     1     1     7 1   
     2     1    20 1   
     3     1    25 2   
     4     2     3 1   
     5     2    18 2   
     6     2    49 1   
     7     3     4 2   
     8     3    15 1   
     9     4    19 1   
    10     4    34 1   
    11     5     6 1   
    12     5    14 1   
    13     5    19 2   
    14     6     7 1   
    15     6    35 1   
    16     6    36 1   
    17     7     8 1   
    18     7    30 1   
    19     8     9 ar  
    20     8    13 ar  
    21     9    10 ar  
    22     9    20 1   
    23    10    11 ar  
    24    10    37 1   
    25    11    12 ar  
    26    11    38 1   
    27    12    13 ar  
    28    12    39 1   
    29    13    40 1   
    30    14    26 1   
    31    14    27 1   
    32    15    16 2   
    33    15    28 1   
    34    16    17 1   
    35    16    21 1   
    36    17    41 1   
    37    17    42 1   
    38    17    43 1   
    39    18    21 1   
    40    18    44 1   
    41    20    45 1   
    42    21    48 1   
    43    22    31 1   
    44    23    31 1   
    45    24    31 1   
    46    24    49 1   
    47    28    46 1   
    48    29    31 1   
    49    30    47 1   
    50    32    49 1   
    51    33    49 1   
@<TRIPOS>SUBSTRUCTURE
     1 YQK         1 TEMP              0 ****  ****    0 ROOT
