@<TRIPOS>MOLECULE
YQL
   46    49     1     0     0
SMALL
abcg2


@<TRIPOS>ATOM
      1 C10         30.1580   -17.7680   -20.3040 ca         1 YQL       0.099400
      2 C11         29.1470   -16.7870   -20.3660 ca         1 YQL      -0.101200
      3 C13         28.9230   -15.8460   -19.3760 ca         1 YQL      -0.132000
      4 C15         29.5630   -14.9820   -17.1220 cp         1 YQL       0.011000
      5 C16         29.5270   -13.5920   -17.2210 ca         1 YQL       0.125000
      6 C18         29.3330   -12.7780   -16.1130 ca         1 YQL      -0.115000
      7 C19         29.1720   -13.3280   -14.8470 ca         1 YQL      -0.089300
      8 C20         28.9390   -12.4570   -13.6480 c3         1 YQL      -0.038800
      9 C21         29.2240   -14.7160   -14.7260 ca         1 YQL      -0.114000
     10 C22         29.4120   -15.5150   -15.8380 ca         1 YQL      -0.090000
     11 C23         30.7690   -16.8690   -18.1960 ca         1 YQL      -0.121000
     12 C24         31.0090   -17.8130   -19.1860 ca         1 YQL      -0.057600
     13 C25         32.1600   -18.8080   -19.0020 c          1 YQL       0.713600
     14 C14         29.7580   -15.8960   -18.2680 cp         1 YQL      -0.049000
     15 C3          30.6470   -18.6320   -24.7020 c6         1 YQL       0.135300
     16 C4          31.7030   -19.5330   -25.3130 c6         1 YQL       0.152600
     17 C6          30.1290   -21.1990   -25.6830 c6         1 YQL       0.152600
     18 C7          29.0310   -20.3310   -25.0960 c6         1 YQL       0.135300
     19 C8          29.1010   -18.0870   -22.1350 cc         1 YQL       0.354800
     20 N12         28.5010   -17.0200   -21.5520 na         1 YQL      -0.336600
     21 N2          29.5990   -19.4400   -24.1020 n3         1 YQL      -0.687600
     22 N9          30.0880   -18.5590   -21.4280 nd         1 YQL      -0.480100
     23 O26         32.4760   -19.5050   -19.9820 o          1 YQL      -0.703500
     24 O27         32.6840   -18.8260   -17.8700 o          1 YQL      -0.703500
     25 O5          31.1530   -20.4200   -26.2610 os         1 YQL      -0.467000
     26 CL17        29.7780   -12.8070   -18.7510 cl         1 YQL      -0.217000
     27 H39         28.1200   -15.1250   -19.4540 ha         1 YQL       0.099000
     28 H40         29.3170   -11.7030   -16.2380 ha         1 YQL       0.113000
     29 H42         27.9090   -12.5440   -13.2990 hc         1 YQL       0.035367
     30 H43         29.5840   -12.7470   -12.8180 hc         1 YQL       0.035367
     31 H41         29.1250   -11.4080   -13.8700 hc         1 YQL       0.035367
     32 H44         29.1100   -15.1760   -13.7520 ha         1 YQL       0.108000
     33 H45         29.4340   -16.5910   -15.7220 ha         1 YQL       0.134000
     34 H46         31.4040   -16.8840   -17.3200 ha         1 YQL       0.137000
     35 H28         28.1940   -17.8390   -24.0480 h1         1 YQL       0.025700
     36 H29         27.7470   -19.3040   -23.1950 h1         1 YQL       0.025700
     37 H32         32.4550   -18.9310   -25.8270 h1         1 YQL       0.054200
     38 H33         32.2080   -20.0910   -24.5110 h1         1 YQL       0.054200
     39 H34         29.7250   -21.8440   -26.4650 h1         1 YQL       0.054200
     40 H35         30.5380   -21.8420   -24.8910 h1         1 YQL       0.054200
     41 H37         28.2820   -20.9740   -24.6260 h1         1 YQL       0.036950
     42 H36         28.5260   -19.7790   -25.9070 h1         1 YQL       0.036950
     43 H38         27.7250   -16.4940   -21.9240 hn         1 YQL       0.332000
     44 C1          28.5990   -18.6540   -23.4260 c3         1 YQL       0.177500
     45 H30         30.2400   -17.9560   -25.4730 h1         1 YQL       0.036950
     46 H31         31.1190   -18.0090   -23.9400 h1         1 YQL       0.036950
@<TRIPOS>BOND
     1     1     2 ar  
     2     1    12 ar  
     3     1    22 1   
     4     2     3 ar  
     5     2    20 1   
     6     3    14 ar  
     7     3    27 1   
     8     4     5 ar  
     9     4    10 ar  
    10     4    14 1   
    11     5     6 ar  
    12     5    26 1   
    13     6     7 ar  
    14     6    28 1   
    15     7     8 1   
    16     7     9 ar  
    17     8    29 1   
    18     8    30 1   
    19     8    31 1   
    20     9    10 ar  
    21     9    32 1   
    22    10    33 1   
    23    11    12 ar  
    24    11    14 ar  
    25    11    34 1   
    26    12    13 1   
    27    13    23 1   
    28    13    24 1   
    29    15    16 1   
    30    15    21 1   
    31    15    45 1   
    32    15    46 1   
    33    16    25 1   
    34    16    37 1   
    35    16    38 1   
    36    17    18 1   
    37    17    25 1   
    38    17    39 1   
    39    17    40 1   
    40    18    21 1   
    41    18    41 1   
    42    18    42 1   
    43    19    20 1   
    44    19    22 2   
    45    19    44 1   
    46    20    43 1   
    47    21    44 1   
    48    35    44 1   
    49    36    44 1   
@<TRIPOS>SUBSTRUCTURE
     1 YQL         1 TEMP              0 ****  ****    0 ROOT
