@<TRIPOS>MOLECULE
YQL
   46    49     1     0     0
SMALL
No Charge or Current Charge


@<TRIPOS>ATOM
      1 C10         30.0160   -18.5440   -19.7140 ca         1 YQL       0.099400
      2 C11         29.2870   -17.4510   -20.0910 ca         1 YQL      -0.101200
      3 C13         29.1440   -16.3110   -19.2960 ca         1 YQL      -0.132000
      4 C15         29.6640   -15.1050   -17.1220 cp         1 YQL       0.011000
      5 C16         29.9700   -13.7780   -17.5340 ca         1 YQL       0.125000
      6 C18         29.8310   -12.7020   -16.6400 ca         1 YQL      -0.115000
      7 C19         29.3920   -12.9160   -15.3210 ca         1 YQL      -0.089300
      8 C20         29.2410   -11.7450   -14.3620 c3         1 YQL      -0.038800
      9 C21         29.0940   -14.2230   -14.8990 ca         1 YQL      -0.114000
     10 C22         29.2320   -15.3020   -15.7880 ca         1 YQL      -0.090000
     11 C23         30.5410   -17.4270   -17.6340 ca         1 YQL      -0.121000
     12 C24         30.6740   -18.5680   -18.4680 ca         1 YQL      -0.057600
     13 C25         31.4820   -19.7600   -18.0100 c          1 YQL       0.713600
     14 C14         29.7920   -16.2830   -18.0340 cp         1 YQL      -0.049000
     15 C3          30.0330   -18.1310   -24.4950 c6         1 YQL       0.135300
     16 C4          31.0590   -18.0350   -25.6640 c6         1 YQL       0.152600
     17 C6          30.4530   -20.2370   -26.4330 c6         1 YQL       0.152600
     18 C7          29.4120   -20.3800   -25.2820 c6         1 YQL       0.135300
     19 C8          29.1900   -19.0020   -21.6680 cc         1 YQL       0.354800
     20 N12         28.7610   -17.7230   -21.3140 na         1 YQL      -0.336600
     21 N2          29.7820   -19.5510   -24.0940 n3         1 YQL      -0.687600
     22 N9          29.9570   -19.5370   -20.6940 nd         1 YQL      -0.480100
     23 O26         32.3260   -20.2280   -18.7630 o          1 YQL      -0.703500
     24 O27         31.3190   -20.1540   -16.8620 o          1 YQL      -0.703500
     25 O5          30.6250   -18.8430   -26.7850 os         1 YQL      -0.467000
     26 Cl17        30.5790   -13.4190   -19.1520 cl         1 YQL      -0.217000
     27 H39         28.5390   -15.4730   -19.6330 ha         1 YQL       0.099000
     28 H40         30.0720   -11.6960   -16.9750 ha         1 YQL       0.113000
     29 H42         28.2360   -11.3120   -14.4300 hc         1 YQL       0.035367
     30 H43         29.4030   -12.0560   -13.3230 hc         1 YQL       0.035367
     31 H41         29.9640   -10.9510   -14.5830 hc         1 YQL       0.035367
     32 H44         28.7520   -14.4050   -13.8820 ha         1 YQL       0.108000
     33 H45         28.9910   -16.3060   -15.4450 ha         1 YQL       0.134000
     34 H46         31.0370   -17.4220   -16.6660 ha         1 YQL       0.137000
     35 H28         27.8280   -19.3110   -23.2850 h1         1 YQL       0.025700
     36 H29         28.6700   -20.7600   -22.7480 h1         1 YQL       0.025700
     37 H32         31.1580   -16.9900   -25.9900 h1         1 YQL       0.054200
     38 H33         32.0460   -18.3830   -25.3260 h1         1 YQL       0.054200
     39 H34         30.1120   -20.7940   -27.3170 h1         1 YQL       0.054200
     40 H35         31.4200   -20.6550   -26.1170 h1         1 YQL       0.054200
     41 H37         29.3420   -21.4410   -25.0000 h1         1 YQL       0.036950
     42 H36         28.4240   -20.0810   -25.6620 h1         1 YQL       0.036950
     43 H38         28.1690   -17.1200   -21.8700 hn         1 YQL       0.332000
     44 C1          28.8090   -19.6940   -22.9700 c3         1 YQL       0.177500
     45 H30         29.0940   -17.6520   -24.8100 h1         1 YQL       0.036950
     46 H31         30.4230   -17.5530   -23.6450 h1         1 YQL       0.036950
@<TRIPOS>BOND
     1     1     2 ar  
     2     1    12 ar  
     3     1    22 1   
     4     2     3 ar  
     5     2    20 1   
     6     3    14 ar  
     7     3    27 1   
     8     4     5 ar  
     9     4    10 ar  
    10     4    14 1   
    11     5     6 ar  
    12     5    26 1   
    13     6     7 ar  
    14     6    28 1   
    15     7     8 1   
    16     7     9 ar  
    17     8    29 1   
    18     8    30 1   
    19     8    31 1   
    20     9    10 ar  
    21     9    32 1   
    22    10    33 1   
    23    11    12 ar  
    24    11    14 ar  
    25    11    34 1   
    26    12    13 1   
    27    13    23 1   
    28    13    24 1   
    29    15    16 1   
    30    15    21 1   
    31    15    45 1   
    32    15    46 1   
    33    16    25 1   
    34    16    37 1   
    35    16    38 1   
    36    17    18 1   
    37    17    25 1   
    38    17    39 1   
    39    17    40 1   
    40    18    21 1   
    41    18    41 1   
    42    18    42 1   
    43    19    20 1   
    44    19    22 2   
    45    19    44 1   
    46    20    43 1   
    47    21    44 1   
    48    35    44 1   
    49    36    44 1   
@<TRIPOS>SUBSTRUCTURE
     1 YQL         1 TEMP              0 ****  ****    0 ROOT
