@<TRIPOS>MOLECULE
YQN
   70    73     1     0     0
SMALL
No Charge or Current Charge


@<TRIPOS>ATOM
      1 C10         26.6440   -11.5140    -6.0370 c3         1 YQN      -0.085100
      2 C13         23.4270    -8.7650    -5.0620 ca         1 YQN      -0.112500
      3 C15         20.4460    -8.5990    -6.5450 ca         1 YQN      -0.163300
      4 C20         20.3220    -9.9530    -6.9180 ca         1 YQN      -0.047000
      5 C21         18.7650    -8.7610    -4.6260 c          1 YQN       0.599100
      6 C24         16.2840   -10.5910    -5.7550 c6         1 YQN      -0.089900
      7 C26         13.7980   -10.3370    -6.2870 c6         1 YQN      -0.077400
      8 C28         15.2670    -8.2740    -5.9530 c6         1 YQN      -0.089900
      9 C02         21.1630    -7.4350    -2.9810 c          1 YQN       0.643100
     10 C04         22.2380    -9.1890    -4.4490 ca         1 YQN      -0.084000
     11 C05         22.0890   -10.5360    -4.0920 ca         1 YQN      -0.112500
     12 C06         23.1100   -11.4590    -4.3720 ca         1 YQN      -0.105000
     13 C07         24.3080   -11.0570    -5.0090 ca         1 YQN      -0.039300
     14 C08         25.4010   -12.1140    -5.3200 c3         1 YQN      -0.002700
     15 C09         24.8030   -13.2100    -6.2440 c3         1 YQN      -0.085100
     16 C11         25.8830   -12.7640    -3.9960 c3         1 YQN      -0.085100
     17 C12         24.4490    -9.6860    -5.3450 ca         1 YQN      -0.105000
     18 C14         20.0830    -8.1130    -5.1330 c3         1 YQN       0.090000
     19 C16         20.9420    -7.6850    -7.4970 ca         1 YQN       0.355900
     20 C18         21.1670    -9.3390    -9.1030 ca         1 YQN       0.347900
     21 C19         20.6900   -10.3210    -8.2210 ca         1 YQN      -0.166000
     22 C23         16.3350    -9.1330    -5.2270 c6         1 YQN       0.107700
     23 C25         14.8720   -11.2060    -5.5880 c6         1 YQN      -0.071900
     24 C27         13.8490    -8.8740    -5.7840 c6         1 YQN      -0.071900
     25 C30         22.1550    -7.6480    -1.8550 c6         1 YQN      -0.354000
     26 C31         21.9470    -8.9770    -1.2160 c2         1 YQN       0.523200
     27 C33         24.1930    -9.6580    -1.4300 c          1 YQN       0.702400
     28 C35         23.5750    -7.4290    -2.2450 c          1 YQN       0.589000
     29 N17         21.2930    -8.0380    -8.7550 nb         1 YQN      -0.664000
     30 N22         17.6680    -8.5610    -5.4400 ns         1 YQN      -0.490900
     31 N32         22.8840    -9.8480    -1.0050 ne         1 YQN      -0.616100
     32 N34         24.4270    -8.4520    -2.0090 ns         1 YQN      -0.495500
     33 O01         20.3030    -6.5750    -2.8390 o          1 YQN      -0.562100
     34 O36         23.9680    -6.3640    -2.6840 o          1 YQN      -0.498000
     35 O37         25.0850   -10.4710    -1.2870 o          1 YQN      -0.477000
     36 H1          27.1280   -10.7500    -5.4160 hc         1 YQN       0.038478
     37 H2          27.3900   -12.2910    -6.2420 hc         1 YQN       0.038478
     38 H3          26.3680   -11.0620    -6.9970 hc         1 YQN       0.038478
     39 H4          23.5570    -7.7200    -5.3350 ha         1 YQN       0.134500
     40 H5          19.9600   -10.7040    -6.2180 ha         1 YQN       0.132000
     41 H6          17.0170   -11.2090    -5.2200 hc         1 YQN       0.044700
     42 H7          16.5730   -10.6150    -6.8150 hc         1 YQN       0.044700
     43 H8          13.9550   -10.3600    -7.3750 hc         1 YQN       0.040700
     44 H9          12.8000   -10.7600    -6.1080 hc         1 YQN       0.040700
     45 H10         15.2820    -7.2500    -5.5560 hc         1 YQN       0.044700
     46 H11         15.5080    -8.2000    -7.0220 hc         1 YQN       0.044700
     47 H12         21.1770   -10.8750    -3.6050 ha         1 YQN       0.134500
     48 H13         22.9590   -12.4970    -4.0910 ha         1 YQN       0.122500
     49 H14         23.9790   -13.7450    -5.7570 hc         1 YQN       0.038478
     50 H15         24.4170   -12.7660    -7.1700 hc         1 YQN       0.038478
     51 H16         25.5630   -13.9530    -6.5160 hc         1 YQN       0.038478
     52 H17         25.0640   -13.2680    -3.4690 hc         1 YQN       0.038478
     53 H18         26.6630   -13.5110    -4.1860 hc         1 YQN       0.038478
     54 H19         26.3010   -12.0050    -3.3230 hc         1 YQN       0.038478
     55 H20         25.3440    -9.3100    -5.8310 ha         1 YQN       0.122500
     56 H21         19.8490    -7.0450    -5.2250 h1         1 YQN       0.089700
     57 H22         21.0620    -6.6320    -7.2450 h4         1 YQN       0.025100
     58 H23         21.4590    -9.6010   -10.1190 h4         1 YQN       0.022100
     59 H24         20.6130   -11.3540    -8.5480 ha         1 YQN       0.128000
     60 H25         16.1180    -9.1320    -4.1470 h1         1 YQN       0.082700
     61 H26         14.8560   -12.2230    -6.0010 hc         1 YQN       0.043700
     62 H27         14.6340   -11.2990    -4.5190 hc         1 YQN       0.043700
     63 H28         13.1180    -8.2650    -6.3330 hc         1 YQN       0.043700
     64 H29         13.5540    -8.8360    -4.7260 hc         1 YQN       0.043700
     65 H30         21.9290    -6.8760    -1.1130 hc         1 YQN       0.133700
     66 H31         20.9430    -9.2060    -0.8660 h4         1 YQN       0.051800
     67 H32         17.8220    -8.0160    -6.2800 hn         1 YQN       0.313500
     68 H33         25.3820    -8.2940    -2.2880 hn         1 YQN       0.340500
     69 N03         21.2040    -8.2420    -4.1520 n          1 YQN      -0.215400
     70 O29         18.6890    -9.4230    -3.5970 o          1 YQN      -0.606100
@<TRIPOS>BOND
     1     1    14 1   
     2     1    36 1   
     3     1    37 1   
     4     1    38 1   
     5     2    10 ar  
     6     2    17 ar  
     7     2    39 1   
     8     3     4 ar  
     9     3    18 1   
    10     3    19 ar  
    11     4    21 ar  
    12     4    40 1   
    13     5    18 1   
    14     5    30 1   
    15     5    70 2   
    16     6    22 1   
    17     6    23 1   
    18     6    41 1   
    19     6    42 1   
    20     7    23 1   
    21     7    24 1   
    22     7    43 1   
    23     7    44 1   
    24     8    22 1   
    25     8    24 1   
    26     8    45 1   
    27     8    46 1   
    28     9    25 1   
    29     9    33 2   
    30     9    69 1   
    31    10    11 ar  
    32    10    69 1   
    33    11    12 ar  
    34    11    47 1   
    35    12    13 ar  
    36    12    48 1   
    37    13    14 1   
    38    13    17 ar  
    39    14    15 1   
    40    14    16 1   
    41    15    49 1   
    42    15    50 1   
    43    15    51 1   
    44    16    52 1   
    45    16    53 1   
    46    16    54 1   
    47    17    55 1   
    48    18    56 1   
    49    18    69 1   
    50    19    29 ar  
    51    19    57 1   
    52    20    21 ar  
    53    20    29 ar  
    54    20    58 1   
    55    21    59 1   
    56    22    30 1   
    57    22    60 1   
    58    23    61 1   
    59    23    62 1   
    60    24    63 1   
    61    24    64 1   
    62    25    26 1   
    63    25    28 1   
    64    25    65 1   
    65    26    31 2   
    66    26    66 1   
    67    27    31 1   
    68    27    32 1   
    69    27    35 2   
    70    28    32 1   
    71    28    34 2   
    72    30    67 1   
    73    32    68 1   
@<TRIPOS>SUBSTRUCTURE
     1 YQN         1 TEMP              0 ****  ****    0 ROOT
