@<TRIPOS>MOLECULE
YQN
   70    73     1     0     0
SMALL
abcg2


@<TRIPOS>ATOM
      1 C10         26.7150   -11.5280    -5.5030 c3         1 YQN      -0.085100
      2 C13         23.3660    -8.9500    -5.0200 ca         1 YQN      -0.112500
      3 C15         20.3960    -8.8030    -6.6300 ca         1 YQN      -0.163300
      4 C20         20.1960   -10.1090    -7.0580 ca         1 YQN      -0.047000
      5 C21         18.7260    -9.0110    -4.7630 c          1 YQN       0.599100
      6 C24         16.1150   -10.2830    -6.3090 c6         1 YQN      -0.089900
      7 C26         13.6300    -9.9080    -6.2160 c6         1 YQN      -0.077400
      8 C28         15.2010    -8.1830    -5.2590 c6         1 YQN      -0.089900
      9 C02         20.9850    -7.8030    -3.1350 c          1 YQN       0.643100
     10 C04         22.1450    -9.4020    -4.5480 ca         1 YQN      -0.084000
     11 C05         21.9620   -10.7620    -4.3170 ca         1 YQN      -0.112500
     12 C06         23.0140   -11.6390    -4.5000 ca         1 YQN      -0.105000
     13 C07         24.2760   -11.1960    -4.9040 ca         1 YQN      -0.039300
     14 C08         25.4280   -12.1860    -5.0090 c3         1 YQN      -0.002700
     15 C09         25.0520   -13.3100    -5.9830 c3         1 YQN      -0.085100
     16 C11         25.6890   -12.7760    -3.6150 c3         1 YQN      -0.085100
     17 C12         24.4230    -9.8370    -5.1760 ca         1 YQN      -0.105000
     18 C14         20.0010    -8.3130    -5.2590 c3         1 YQN       0.090000
     19 C16         21.0100    -7.9220    -7.5140 ca         1 YQN       0.355900
     20 C18         21.2300    -9.5120    -9.1210 ca         1 YQN       0.347900
     21 C19         20.6180   -10.4700    -8.3270 ca         1 YQN      -0.166000
     22 C23         16.3160    -9.2220    -5.2250 c6         1 YQN       0.107700
     23 C25         14.7470   -10.9440    -6.1840 c6         1 YQN      -0.071900
     24 C27         13.8330    -8.8470    -5.1390 c6         1 YQN      -0.071900
     25 C30         22.1520    -7.9350    -2.1480 c6         1 YQN      -0.354000
     26 C31         22.5790    -9.3240    -1.8000 c2         1 YQN       0.523200
     27 C33         24.8280    -8.8290    -1.8240 c          1 YQN       0.702400
     28 C35         23.3010    -7.0480    -2.5640 c          1 YQN       0.589000
     29 N17         21.4220    -8.2580    -8.7270 nb         1 YQN      -0.664000
     30 N22         17.6100    -8.5780    -5.3610 ns         1 YQN      -0.490900
     31 N32         23.7720    -9.7130    -1.6030 ne         1 YQN      -0.616100
     32 N34         24.5370    -7.5520    -2.2760 ns         1 YQN      -0.495500
     33 O01         20.0400    -7.0860    -2.8790 o          1 YQN      -0.562100
     34 O36         23.1420    -5.9690    -3.0790 o          1 YQN      -0.498000
     35 O37         25.9700    -9.1640    -1.6330 o          1 YQN      -0.477000
     36 H1          27.0620   -10.7430    -4.8270 hc         1 YQN       0.038478
     37 H2          27.5060   -12.2760    -5.5650 hc         1 YQN       0.038478
     38 H3          26.5990   -11.0930    -6.4970 hc         1 YQN       0.038478
     39 H4          23.5020    -7.9030    -5.2570 ha         1 YQN       0.134500
     40 H5          19.7210   -10.8440    -6.4200 ha         1 YQN       0.132000
     41 H6          16.9110   -11.0290    -6.2440 hc         1 YQN       0.044700
     42 H7          16.2050    -9.8060    -7.2910 hc         1 YQN       0.044700
     43 H8          13.6130    -9.4260    -7.2000 hc         1 YQN       0.040700
     44 H9          12.6590   -10.3920    -6.0900 hc         1 YQN       0.040700
     45 H10         15.3480    -7.4610    -4.4520 hc         1 YQN       0.044700
     46 H11         15.2550    -7.6240    -6.2000 hc         1 YQN       0.044700
     47 H12         21.0010   -11.1210    -3.9730 ha         1 YQN       0.134500
     48 H13         22.8470   -12.6890    -4.2960 ha         1 YQN       0.122500
     49 H14         24.1670   -13.8570    -5.6570 hc         1 YQN       0.038478
     50 H15         24.8550   -12.9160    -6.9820 hc         1 YQN       0.038478
     51 H16         25.8700   -14.0300    -6.0620 hc         1 YQN       0.038478
     52 H17         24.8270   -13.3280    -3.2380 hc         1 YQN       0.038478
     53 H18         26.5350   -13.4660    -3.6500 hc         1 YQN       0.038478
     54 H19         25.9260   -11.9900    -2.8960 hc         1 YQN       0.038478
     55 H20         25.3700    -9.4430    -5.5160 ha         1 YQN       0.122500
     56 H21         19.7960    -7.2410    -5.3390 h1         1 YQN       0.089700
     57 H22         21.1770    -6.8910    -7.2130 h4         1 YQN       0.025100
     58 H23         21.5740    -9.7660   -10.1170 h4         1 YQN       0.022100
     59 H24         20.4800   -11.4770    -8.6950 ha         1 YQN       0.128000
     60 H25         16.3000    -9.7120    -4.2480 h1         1 YQN       0.082700
     61 H26         14.6130   -11.6740    -6.9860 hc         1 YQN       0.043700
     62 H27         14.6980   -11.5060    -5.2450 hc         1 YQN       0.043700
     63 H28         13.0490    -8.0890    -5.1990 hc         1 YQN       0.043700
     64 H29         13.7430    -9.3110    -4.1520 hc         1 YQN       0.043700
     65 H30         21.7720    -7.5140    -1.2050 hc         1 YQN       0.133700
     66 H31         21.7820   -10.0380    -1.6040 h4         1 YQN       0.051800
     67 H32         17.6940    -7.8670    -6.0740 hn         1 YQN       0.313500
     68 H33         25.3330    -6.9620    -2.4950 hn         1 YQN       0.340500
     69 N03         21.0900    -8.4800    -4.3020 n          1 YQN      -0.215400
     70 O29         18.7620    -9.8950    -3.9230 o          1 YQN      -0.606100
@<TRIPOS>BOND
     1     1    14 1   
     2     1    36 1   
     3     1    37 1   
     4     1    38 1   
     5     2    10 ar  
     6     2    17 ar  
     7     2    39 1   
     8     3     4 ar  
     9     3    18 1   
    10     3    19 ar  
    11     4    21 ar  
    12     4    40 1   
    13     5    18 1   
    14     5    30 1   
    15     5    70 2   
    16     6    22 1   
    17     6    23 1   
    18     6    41 1   
    19     6    42 1   
    20     7    23 1   
    21     7    24 1   
    22     7    43 1   
    23     7    44 1   
    24     8    22 1   
    25     8    24 1   
    26     8    45 1   
    27     8    46 1   
    28     9    25 1   
    29     9    33 2   
    30     9    69 1   
    31    10    11 ar  
    32    10    69 1   
    33    11    12 ar  
    34    11    47 1   
    35    12    13 ar  
    36    12    48 1   
    37    13    14 1   
    38    13    17 ar  
    39    14    15 1   
    40    14    16 1   
    41    15    49 1   
    42    15    50 1   
    43    15    51 1   
    44    16    52 1   
    45    16    53 1   
    46    16    54 1   
    47    17    55 1   
    48    18    56 1   
    49    18    69 1   
    50    19    29 ar  
    51    19    57 1   
    52    20    21 ar  
    53    20    29 ar  
    54    20    58 1   
    55    21    59 1   
    56    22    30 1   
    57    22    60 1   
    58    23    61 1   
    59    23    62 1   
    60    24    63 1   
    61    24    64 1   
    62    25    26 1   
    63    25    28 1   
    64    25    65 1   
    65    26    31 2   
    66    26    66 1   
    67    27    31 1   
    68    27    32 1   
    69    27    35 2   
    70    28    32 1   
    71    28    34 2   
    72    30    67 1   
    73    32    68 1   
@<TRIPOS>SUBSTRUCTURE
     1 YQN         1 TEMP              0 ****  ****    0 ROOT
