@<TRIPOS>MOLECULE
YQO
   30    32     1     0     0
SMALL
abcg2


@<TRIPOS>ATOM
      1 C12         21.7140    18.1800    30.3150 ca         1 YQO       0.158000
      2 O1          22.8490    11.2050    25.4660 o          1 YQO      -0.506000
      3 C13         22.8320    14.6800    26.1690 c          1 YQO       0.563000
      4 O2          24.2590    15.9700    27.5680 os         1 YQO      -0.247000
      5 O3          22.3980    15.6770    25.6470 o          1 YQO      -0.478000
      6 C7          21.8360    16.8070    30.0640 ca         1 YQO      -0.107900
      7 C8          21.0610    15.9500    30.8520 ca         1 YQO      -0.085000
      8 C9          20.2190    16.4090    31.8470 ca         1 YQO      -0.108000
      9 C10         20.1330    17.7730    32.0670 ca         1 YQO       0.138000
     10 C11         20.8710    18.6620    31.3050 ca         1 YQO      -0.107000
     11 N1          22.6370    13.4370    25.6180 ns         1 YQO      -0.483500
     12 C1          23.1030    12.2170    26.0750 c          1 YQO       0.578000
     13 N2          23.6280    16.8070    28.4390 n2         1 YQO      -0.213700
     14 C2          23.8960    12.2530    27.3500 c6         1 YQO      -0.166400
     15 C3          24.5980    13.5830    27.5730 c6         1 YQO      -0.070400
     16 C4          23.5880    14.7110    27.4960 c5         1 YQO       0.053000
     17 C5          22.5860    14.7500    28.6550 c5         1 YQO      -0.160700
     18 C6          22.6910    16.1970    29.0450 ce         1 YQO       0.356900
     19 CL2         22.5700    19.3690    29.4050 cl         1 YQO      -0.150000
     20 CL1         19.0880    18.3810    33.2970 cl         1 YQO      -0.180000
     21 H1          21.1170    14.8820    30.6950 ha         1 YQO       0.117000
     22 H2          19.6420    15.7110    32.4370 ha         1 YQO       0.137000
     23 H3          20.7920    19.7270    31.4740 ha         1 YQO       0.149000
     24 H4          22.0930    13.4140    24.7610 hn         1 YQO       0.333500
     25 H6          23.2000    12.0440    28.1700 hc         1 YQO       0.081700
     26 H7          24.6070    11.4290    27.3330 hc         1 YQO       0.081700
     27 H8          25.0820    13.5930    28.5490 hc         1 YQO       0.076700
     28 H9          25.3740    13.7290    26.8170 hc         1 YQO       0.076700
     29 H10         21.5710    14.4630    28.3750 hc         1 YQO       0.081700
     30 H11         22.8920    14.0980    29.4780 hc         1 YQO       0.081700
@<TRIPOS>BOND
     1     1     6 ar  
     2     1    10 ar  
     3     1    19 1   
     4     2    12 2   
     5     3     5 2   
     6     3    11 1   
     7     3    16 1   
     8     4    13 1   
     9     4    16 1   
    10     6     7 ar  
    11     6    18 1   
    12     7     8 ar  
    13     7    21 1   
    14     8     9 ar  
    15     8    22 1   
    16     9    10 ar  
    17     9    20 1   
    18    10    23 1   
    19    11    12 1   
    20    11    24 1   
    21    12    14 1   
    22    13    18 2   
    23    14    15 1   
    24    14    25 1   
    25    14    26 1   
    26    15    16 1   
    27    15    27 1   
    28    15    28 1   
    29    16    17 1   
    30    17    18 1   
    31    17    29 1   
    32    17    30 1   
@<TRIPOS>SUBSTRUCTURE
     1 YQO         1 TEMP              0 ****  ****    0 ROOT
