@<TRIPOS>MOLECULE
YQO
   30    32     1     0     0
SMALL
No Charge or Current Charge


@<TRIPOS>ATOM
      1 C12         21.4670    18.0770    30.0250 ca         1 YQO       0.158000
      2 O1          22.5210    11.5890    25.1260 o          1 YQO      -0.506000
      3 C13         22.8270    14.9070    26.3950 c          1 YQO       0.563000
      4 O2          24.5790    15.7940    27.9030 os         1 YQO      -0.247000
      5 O3          22.4300    15.9950    26.0060 o          1 YQO      -0.478000
      6 C7          21.8300    16.7100    30.1580 ca         1 YQO      -0.107900
      7 C8          21.2450    15.9540    31.2000 ca         1 YQO      -0.085000
      8 C9          20.3150    16.5370    32.0770 ca         1 YQO      -0.108000
      9 C10         19.9600    17.8840    31.9290 ca         1 YQO       0.138000
     10 C11         20.5340    18.6500    30.9060 ca         1 YQO      -0.107000
     11 N1          22.5740    13.7740    25.6570 ns         1 YQO      -0.483500
     12 C1          22.9010    12.4640    25.8850 c          1 YQO       0.578000
     13 N2          23.9010    16.6300    28.8130 n2         1 YQO      -0.213700
     14 C2          23.8360    12.1640    27.0570 c6         1 YQO      -0.166400
     15 C3          24.6680    13.3920    27.4830 c6         1 YQO      -0.070400
     16 C4          23.7530    14.6320    27.6450 c5         1 YQO       0.053000
     17 C5          22.8350    14.5810    28.9080 c5         1 YQO      -0.160700
     18 C6          22.8510    16.0480    29.2860 ce         1 YQO       0.356900
     19 Cl2         22.0930    19.1060    28.7340 cl         1 YQO      -0.150000
     20 Cl1         18.7940    18.6130    33.0250 cl         1 YQO      -0.180000
     21 H1          21.5170    14.9100    31.3410 ha         1 YQO       0.117000
     22 H2          19.8720    15.9450    32.8740 ha         1 YQO       0.137000
     23 H3          20.2510    19.6930    30.7900 ha         1 YQO       0.149000
     24 H4          22.0060    13.9250    24.8370 hn         1 YQO       0.333500
     25 H6          23.1860    11.8860    27.8970 hc         1 YQO       0.081700
     26 H7          24.4470    11.2810    26.8310 hc         1 YQO       0.081700
     27 H8          25.2120    13.1850    28.4150 hc         1 YQO       0.076700
     28 H9          25.4280    13.6000    26.7170 hc         1 YQO       0.076700
     29 H10         21.8240    14.2080    28.7080 hc         1 YQO       0.081700
     30 H11         23.2690    13.9730    29.7110 hc         1 YQO       0.081700
@<TRIPOS>BOND
     1     1     6 ar  
     2     1    10 ar  
     3     1    19 1   
     4     2    12 2   
     5     3     5 2   
     6     3    11 1   
     7     3    16 1   
     8     4    13 1   
     9     4    16 1   
    10     6     7 ar  
    11     6    18 1   
    12     7     8 ar  
    13     7    21 1   
    14     8     9 ar  
    15     8    22 1   
    16     9    10 ar  
    17     9    20 1   
    18    10    23 1   
    19    11    12 1   
    20    11    24 1   
    21    12    14 1   
    22    13    18 2   
    23    14    15 1   
    24    14    25 1   
    25    14    26 1   
    26    15    16 1   
    27    15    27 1   
    28    15    28 1   
    29    16    17 1   
    30    17    18 1   
    31    17    29 1   
    32    17    30 1   
@<TRIPOS>SUBSTRUCTURE
     1 YQO         1 TEMP              0 ****  ****    0 ROOT
