@<TRIPOS>MOLECULE
YQP
   45    46     1     0     0
SMALL
No Charge or Current Charge


@<TRIPOS>ATOM
      1 N            8.5500   -58.8660    30.4110 n8         1 YQP      -1.006200
      2 CA           7.1600   -58.3210    30.1860 c3         1 YQP       0.012500
      3 C            5.9700   -59.1700    30.7950 c          1 YQP       0.694000
      4 OXT          5.1890   -58.6120    31.5530 o          1 YQP      -0.728500
      5 CB           6.9100   -58.0540    28.6790 c3         1 YQP      -0.030400
      6 CG           7.8630   -57.0040    28.0630 c3         1 YQP       0.037900
      7 SD           7.4780   -56.7150    26.2740 s4         1 YQP       0.211400
      8 CE           8.8800   -55.3470    25.8760 c2         1 YQP      -1.061000
      9 O            5.9420   -60.3740    30.5730 o          1 YQP      -0.728500
     10 CAH          5.9850   -55.6180    26.2900 c3         1 YQP       0.056900
     11 CAK          5.5360   -55.2680    24.8580 c5         1 YQP       0.194300
     12 CAM          4.3450   -56.0340    23.0220 c5         1 YQP       0.338700
     13 CAN          3.8980   -54.5400    23.2660 c5         1 YQP       0.104300
     14 CAO          4.2790   -54.3450    24.7660 c5         1 YQP       0.097300
     15 CAS          2.7610   -57.1140    21.4540 cc         1 YQP       0.017600
     16 CAT          2.3570   -57.3610    23.8550 c          1 YQP       0.622000
     17 CAV          1.6660   -57.9060    21.1990 cd         1 YQP      -0.389200
     18 CAW          0.8580   -58.4800    22.2750 c          1 YQP       0.594200
     19 NAR          3.1190   -56.8490    22.7780 n          1 YQP      -0.317000
     20 NAU          1.2940   -58.1400    23.5130 ns         1 YQP      -0.470500
     21 OAL          5.1010   -56.4590    24.1750 os         1 YQP      -0.437000
     22 OAP          4.5490   -52.9540    25.0460 oh         1 YQP      -0.711000
     23 OAQ          4.6440   -53.5880    22.4940 oh         1 YQP      -0.725000
     24 OAX         -0.1150   -59.1890    22.0950 o          1 YQP      -0.532000
     25 OAY          2.5740   -57.1280    25.0320 o          1 YQP      -0.547000
     26 H1           8.7140   -58.9560    31.4220 hn         1 YQP       0.386000
     27 H2           8.5690   -59.8420    30.0880 hn         1 YQP       0.386000
     28 H4           7.1250   -57.3450    30.6920 h1         1 YQP       0.035700
     29 H6           5.8770   -57.7060    28.5550 hc         1 YQP       0.045700
     30 H7           6.9930   -58.9950    28.1200 hc         1 YQP       0.045700
     31 H8           8.9020   -57.3470    28.1290 h1         1 YQP       0.073200
     32 H9           7.7690   -56.0480    28.5930 h1         1 YQP       0.073200
     33 H10          8.6460   -54.5340    25.1910 h4         1 YQP       0.161500
     34 H11          9.8550   -55.4460    26.3490 h4         1 YQP       0.161500
     35 H13          6.2340   -54.7070    26.8460 h1         1 YQP       0.096200
     36 H14          5.1770   -56.1480    26.8070 h1         1 YQP       0.096200
     37 H15          6.3840   -54.8310    24.3120 h1         1 YQP       0.097700
     38 H16          4.9690   -56.1050    22.1230 h2         1 YQP       0.078700
     39 H17          2.8180   -54.4010    23.1100 h1         1 YQP       0.067700
     40 H18          3.4760   -54.7280    25.4130 h1         1 YQP       0.088700
     41 H19          3.4070   -56.6550    20.7080 h4         1 YQP       0.205000
     42 H20          1.3430   -58.1490    20.1940 ha         1 YQP       0.218000
     43 H21          0.7570   -58.5050    24.2830 hn         1 YQP       0.345500
     44 H22          4.2610   -52.7690    25.9730 ho         1 YQP       0.512000
     45 H23          4.8420   -52.8840    23.1670 ho         1 YQP       0.529000
@<TRIPOS>BOND
     1     1     2 1   
     2     1    26 1   
     3     1    27 1   
     4     2     3 1   
     5     2     5 1   
     6     2    28 1   
     7     3     4 1   
     8     3     9 1   
     9     5     6 1   
    10     5    29 1   
    11     5    30 1   
    12     6     7 1   
    13     6    31 1   
    14     6    32 1   
    15     7     8 2   
    16     7    10 1   
    17     8    33 1   
    18     8    34 1   
    19    10    11 1   
    20    10    35 1   
    21    10    36 1   
    22    11    14 1   
    23    11    21 1   
    24    11    37 1   
    25    12    13 1   
    26    12    19 1   
    27    12    21 1   
    28    12    38 1   
    29    13    14 1   
    30    13    23 1   
    31    13    39 1   
    32    14    22 1   
    33    14    40 1   
    34    15    17 2   
    35    15    19 1   
    36    15    41 1   
    37    16    19 1   
    38    16    20 1   
    39    16    25 2   
    40    17    18 1   
    41    17    42 1   
    42    18    20 1   
    43    18    24 2   
    44    20    43 1   
    45    22    44 1   
    46    23    45 1   
@<TRIPOS>SUBSTRUCTURE
     1 YQP         1 TEMP              0 ****  ****    0 ROOT
