@<TRIPOS>MOLECULE
YQP
   45    46     1     0     0
SMALL
abcg2


@<TRIPOS>ATOM
      1 N            8.1670   -59.0660    29.9380 n8         1 YQP      -1.006200
      2 CA           6.8960   -58.3610    29.8850 c3         1 YQP       0.012500
      3 C            5.6740   -59.1560    30.4210 c          1 YQP       0.694000
      4 OXT          4.6390   -58.4890    30.6260 o          1 YQP      -0.728500
      5 CB           6.6030   -57.9160    28.4450 c3         1 YQP      -0.030400
      6 CG           7.6730   -56.9770    27.9170 c3         1 YQP       0.037900
      7 SD           7.5170   -56.5900    26.1310 s4         1 YQP       0.211400
      8 CE           8.7480   -55.6030    25.5630 c2         1 YQP      -1.061000
      9 O            5.8180   -60.3840    30.5780 o          1 YQP      -0.728500
     10 CAH          6.0320   -55.5350    26.2340 c3         1 YQP       0.056900
     11 CAK          5.6200   -55.0380    24.8740 c5         1 YQP       0.194300
     12 CAM          4.2810   -55.7530    23.1290 c5         1 YQP       0.338700
     13 CAN          3.7730   -54.3520    23.5190 c5         1 YQP       0.104300
     14 CAO          4.4000   -54.1180    24.9070 c5         1 YQP       0.097300
     15 CAS          3.1480   -57.4910    21.8470 cc         1 YQP       0.017600
     16 CAT          2.4920   -57.1230    24.1140 c          1 YQP       0.622000
     17 CAV          2.2740   -58.4910    21.6620 cd         1 YQP      -0.389200
     18 CAW          1.4110   -58.8900    22.7470 c          1 YQP       0.594200
     19 NAR          3.2730   -56.8000    23.0210 n          1 YQP      -0.317000
     20 NAU          1.6160   -58.1550    23.9070 ns         1 YQP      -0.470500
     21 OAL          5.2460   -56.1390    24.0650 os         1 YQP      -0.437000
     22 OAP          4.8120   -52.7910    25.1020 oh         1 YQP      -0.711000
     23 OAQ          4.2870   -53.4390    22.5850 oh         1 YQP      -0.725000
     24 OAX          0.5750   -59.7700    22.7130 o          1 YQP      -0.532000
     25 OAY          2.5640   -56.5420    25.1750 o          1 YQP      -0.547000
     26 H1           8.4770   -59.1110    30.9010 hn         1 YQP       0.386000
     27 H2           7.9890   -60.0310    29.6840 hn         1 YQP       0.386000
     28 H4           6.9890   -57.4540    30.4920 h1         1 YQP       0.035700
     29 H6           5.6240   -57.4360    28.4250 hc         1 YQP       0.045700
     30 H7           6.5390   -58.8010    27.8020 hc         1 YQP       0.045700
     31 H8           8.6580   -57.4370    27.9990 h1         1 YQP       0.073200
     32 H9           7.6930   -56.0300    28.4630 h1         1 YQP       0.073200
     33 H10          9.1000   -54.8280    26.2360 h4         1 YQP       0.161500
     34 H11          9.5110   -56.1670    25.0430 h4         1 YQP       0.161500
     35 H13          6.2730   -54.6910    26.8840 h1         1 YQP       0.096200
     36 H14          5.2340   -56.1200    26.6930 h1         1 YQP       0.096200
     37 H15          6.4660   -54.5050    24.4190 h1         1 YQP       0.097700
     38 H16          4.7200   -55.6840    22.1300 h2         1 YQP       0.078700
     39 H17          2.6790   -54.3070    23.5470 h1         1 YQP       0.067700
     40 H18          3.7030   -54.4370    25.6830 h1         1 YQP       0.088700
     41 H19          3.8110   -57.1760    21.0530 h4         1 YQP       0.205000
     42 H20          2.2140   -59.0010    20.7130 ha         1 YQP       0.218000
     43 H21          1.0390   -58.3950    24.7060 hn         1 YQP       0.345500
     44 H22          4.1120   -52.3060    25.5510 ho         1 YQP       0.512000
     45 H23          4.5430   -52.6480    23.0780 ho         1 YQP       0.529000
@<TRIPOS>BOND
     1     1     2 1   
     2     1    26 1   
     3     1    27 1   
     4     2     3 1   
     5     2     5 1   
     6     2    28 1   
     7     3     4 1   
     8     3     9 1   
     9     5     6 1   
    10     5    29 1   
    11     5    30 1   
    12     6     7 1   
    13     6    31 1   
    14     6    32 1   
    15     7     8 2   
    16     7    10 1   
    17     8    33 1   
    18     8    34 1   
    19    10    11 1   
    20    10    35 1   
    21    10    36 1   
    22    11    14 1   
    23    11    21 1   
    24    11    37 1   
    25    12    13 1   
    26    12    19 1   
    27    12    21 1   
    28    12    38 1   
    29    13    14 1   
    30    13    23 1   
    31    13    39 1   
    32    14    22 1   
    33    14    40 1   
    34    15    17 2   
    35    15    19 1   
    36    15    41 1   
    37    16    19 1   
    38    16    20 1   
    39    16    25 2   
    40    17    18 1   
    41    17    42 1   
    42    18    20 1   
    43    18    24 2   
    44    20    43 1   
    45    22    44 1   
    46    23    45 1   
@<TRIPOS>SUBSTRUCTURE
     1 YQP         1 TEMP              0 ****  ****    0 ROOT
