@<TRIPOS>MOLECULE
YQQ
   43    45     1     0     0
SMALL
No Charge or Current Charge


@<TRIPOS>ATOM
      1 C11        -45.1840   -12.8030    19.1490 ca         1 YQQ       0.349000
      2 C13        -44.7710   -12.6570    21.5540 ca         1 YQQ      -0.065300
      3 C15        -46.1830   -11.0020    20.4510 ca         1 YQQ      -0.073000
      4 C16        -45.9900   -11.6570    19.2230 ca         1 YQQ      -0.178000
      5 C17        -44.1220   -13.2110    22.8150 c3         1 YQQ       0.153300
      6 C19        -45.8740   -14.0990    24.3950 c          1 YQQ       0.620700
      7 C20        -46.6510   -15.3190    24.8580 ca         1 YQQ      -0.183600
      8 C21        -46.4750   -16.6340    24.3430 ca         1 YQQ       0.190100
      9 C23        -47.2470   -17.6990    24.8380 ca         1 YQQ      -0.217000
     10 C24        -48.2010   -17.4880    25.8440 ca         1 YQQ      -0.021000
     11 C25        -48.3840   -16.1990    26.3590 ca         1 YQQ      -0.070900
     12 C27        -47.6200   -15.1260    25.8740 ca         1 YQQ       0.002000
     13 C12        -44.5870   -13.3060    20.3180 ca         1 YQQ      -0.157000
     14 C14        -45.5720   -11.5010    21.6130 ca         1 YQQ      -0.159000
     15 C2         -43.9460   -13.9570    17.2990 cc         1 YQQ       0.700300
     16 C4         -42.9250   -14.8130    15.5530 cd         1 YQQ       0.426300
     17 C5         -41.8640   -14.7680    16.4310 cc         1 YQQ      -0.306000
     18 C6         -42.8790   -15.3530    14.1610 c3         1 YQQ      -0.268700
     19 C7         -41.9280   -14.5070    13.3320 c          1 YQQ       0.734000
     20 N10        -45.0210   -13.4350    17.9250 nu         1 YQQ      -0.937900
     21 N18        -44.9320   -14.2720    23.4120 ns         1 YQQ      -0.494900
     22 N3         -44.1270   -14.3470    16.0650 nd         1 YQQ      -0.689000
     23 O22        -45.5690   -16.9220    23.3650 oh         1 YQQ      -0.545100
     24 O28        -46.0720   -12.9920    24.8790 o          1 YQQ      -0.607100
     25 O8         -42.3730   -13.5070    12.7920 o          1 YQQ      -0.724000
     26 O9         -40.7450   -14.8090    13.3310 o          1 YQQ      -0.724000
     27 S1         -42.3380   -14.0820    17.9570 ss         1 YQQ      -0.182400
     28 Br26       -49.6830   -15.8990    27.7320 br         1 YQQ      -0.098100
     29 H36        -46.8050   -10.1120    20.5030 ha         1 YQQ       0.104000
     30 H37        -46.4650   -11.2660    18.3270 ha         1 YQQ       0.116000
     31 H39        -43.1350   -13.6230    22.5680 h1         1 YQQ       0.056200
     32 H38        -43.9670   -12.4040    23.5450 h1         1 YQQ       0.056200
     33 H42        -47.1130   -18.7040    24.4450 ha         1 YQQ       0.120000
     34 H43        -48.7930   -18.3190    26.2210 ha         1 YQQ       0.129000
     35 H44        -47.7880   -14.1370    26.2950 ha         1 YQQ       0.157000
     36 H34        -43.9910   -14.2120    20.2720 ha         1 YQQ       0.132000
     37 H35        -45.7280   -10.9930    22.5620 ha         1 YQQ       0.103000
     38 H29        -40.8440   -15.0870    16.2670 h4         1 YQQ       0.145000
     39 H31        -42.5060   -16.3800    14.2390 hc         1 YQQ       0.038700
     40 H30        -43.8920   -15.2910    13.7470 hc         1 YQQ       0.038700
     41 H33        -45.7470   -13.2540    17.2410 hn         1 YQQ       0.510000
     42 H40        -44.8340   -15.2190    23.0620 hn         1 YQQ       0.336500
     43 H41        -45.6220   -17.8830    23.1710 ho         1 YQQ       0.483000
@<TRIPOS>BOND
     1     1     4 ar  
     2     1    13 ar  
     3     1    20 1   
     4     2     5 1   
     5     2    13 ar  
     6     2    14 ar  
     7     3     4 ar  
     8     3    14 ar  
     9     3    29 1   
    10     4    30 1   
    11     5    21 1   
    12     5    31 1   
    13     5    32 1   
    14     6     7 1   
    15     6    21 1   
    16     6    24 2   
    17     7     8 ar  
    18     7    12 ar  
    19     8     9 ar  
    20     8    23 1   
    21     9    10 ar  
    22     9    33 1   
    23    10    11 ar  
    24    10    34 1   
    25    11    12 ar  
    26    11    28 1   
    27    12    35 1   
    28    13    36 1   
    29    14    37 1   
    30    15    20 1   
    31    15    22 2   
    32    15    27 1   
    33    16    17 2   
    34    16    18 1   
    35    16    22 1   
    36    17    27 1   
    37    17    38 1   
    38    18    19 1   
    39    18    39 1   
    40    18    40 1   
    41    19    25 1   
    42    19    26 1   
    43    20    41 1   
    44    21    42 1   
    45    23    43 1   
@<TRIPOS>SUBSTRUCTURE
     1 YQQ         1 TEMP              0 ****  ****    0 ROOT
