@<TRIPOS>MOLECULE
YQQ
   43    45     1     0     0
SMALL
abcg2


@<TRIPOS>ATOM
      1 C11        -44.7440   -11.7990    19.7110 ca         1 YQQ       0.349000
      2 C13        -44.7020   -11.5350    22.1170 ca         1 YQQ      -0.065300
      3 C15        -44.6840    -9.6010    20.6930 ca         1 YQQ      -0.073000
      4 C16        -44.7170   -10.4090    19.5690 ca         1 YQQ      -0.178000
      5 C17        -44.6730   -12.1270    23.5110 c3         1 YQQ       0.153300
      6 C19        -46.1560   -14.0530    23.4330 c          1 YQQ       0.620700
      7 C20        -46.3000   -15.5470    23.3380 ca         1 YQQ      -0.183600
      8 C21        -45.2580   -16.4730    23.1790 ca         1 YQQ       0.190100
      9 C23        -45.5460   -17.8330    23.0710 ca         1 YQQ      -0.217000
     10 C24        -46.8470   -18.2920    23.1160 ca         1 YQQ      -0.021000
     11 C25        -47.8800   -17.3770    23.2700 ca         1 YQQ      -0.070900
     12 C27        -47.6090   -16.0280    23.3770 ca         1 YQQ       0.002000
     13 C12        -44.7480   -12.3480    20.9930 ca         1 YQQ      -0.157000
     14 C14        -44.6690   -10.1530    21.9660 ca         1 YQQ      -0.159000
     15 C2         -44.5030   -13.8760    18.3390 cc         1 YQQ       0.700300
     16 C4         -44.3060   -15.7360    17.1630 cd         1 YQQ       0.426300
     17 C5         -43.7180   -16.1700    18.3040 cc         1 YQQ      -0.306000
     18 C6         -44.5050   -16.5370    15.9260 c3         1 YQQ      -0.268700
     19 C7         -43.5850   -16.1270    14.7430 c          1 YQQ       0.734000
     20 N10        -44.8050   -12.5660    18.5550 nu         1 YQQ      -0.937900
     21 N18        -44.9190   -13.5440    23.5620 ns         1 YQQ      -0.494900
     22 N3         -44.7540   -14.4410    17.1980 nd         1 YQQ      -0.689000
     23 O22        -43.9880   -16.0380    23.1250 oh         1 YQQ      -0.545100
     24 O28        -47.1480   -13.3380    23.3930 o          1 YQQ      -0.607100
     25 O8         -43.9410   -16.5460    13.6260 o          1 YQQ      -0.724000
     26 O9         -42.5750   -15.4550    15.0140 o          1 YQQ      -0.724000
     27 S1         -43.6900   -14.9070    19.4830 ss         1 YQQ      -0.182400
     28 BR26       -49.6670   -17.9840    23.3220 br         1 YQQ      -0.098100
     29 H36        -44.6660    -8.5260    20.5700 ha         1 YQQ       0.104000
     30 H37        -44.7220    -9.9660    18.5800 ha         1 YQQ       0.116000
     31 H39        -43.6880   -11.9550    23.9480 h1         1 YQQ       0.056200
     32 H38        -45.3870   -11.6000    24.1450 h1         1 YQQ       0.056200
     33 H42        -44.7360   -18.5440    22.9460 ha         1 YQQ       0.120000
     34 H43        -47.0410   -19.3520    23.0300 ha         1 YQQ       0.129000
     35 H44        -48.4130   -15.3140    23.4910 ha         1 YQQ       0.157000
     36 H34        -44.8200   -13.4170    21.1330 ha         1 YQQ       0.132000
     37 H35        -44.6400    -9.5100    22.8380 ha         1 YQQ       0.103000
     38 H29        -43.3190   -17.1460    18.5290 h4         1 YQQ       0.145000
     39 H31        -44.3190   -17.5940    16.1430 hc         1 YQQ       0.038700
     40 H30        -45.5490   -16.4720    15.6090 hc         1 YQQ       0.038700
     41 H33        -45.0610   -12.0770    17.7090 hn         1 YQQ       0.510000
     42 H40        -44.1260   -14.1630    23.5520 hn         1 YQQ       0.336500
     43 H41        -43.3680   -16.7700    23.0140 ho         1 YQQ       0.483000
@<TRIPOS>BOND
     1     1     4 ar  
     2     1    13 ar  
     3     1    20 1   
     4     2     5 1   
     5     2    13 ar  
     6     2    14 ar  
     7     3     4 ar  
     8     3    14 ar  
     9     3    29 1   
    10     4    30 1   
    11     5    21 1   
    12     5    31 1   
    13     5    32 1   
    14     6     7 1   
    15     6    21 1   
    16     6    24 2   
    17     7     8 ar  
    18     7    12 ar  
    19     8     9 ar  
    20     8    23 1   
    21     9    10 ar  
    22     9    33 1   
    23    10    11 ar  
    24    10    34 1   
    25    11    12 ar  
    26    11    28 1   
    27    12    35 1   
    28    13    36 1   
    29    14    37 1   
    30    15    20 1   
    31    15    22 2   
    32    15    27 1   
    33    16    17 2   
    34    16    18 1   
    35    16    22 1   
    36    17    27 1   
    37    17    38 1   
    38    18    19 1   
    39    18    39 1   
    40    18    40 1   
    41    19    25 1   
    42    19    26 1   
    43    20    41 1   
    44    21    42 1   
    45    23    43 1   
@<TRIPOS>SUBSTRUCTURE
     1 YQQ         1 TEMP              0 ****  ****    0 ROOT
