@<TRIPOS>MOLECULE
YQR
   55    59     1     0     0
SMALL
No Charge or Current Charge


@<TRIPOS>ATOM
      1 C19        -22.3800   -12.3910    11.9710 ca         1 YQR      -0.056200
      2 C17        -21.0230   -14.2010    11.1280 ca         1 YQR      -0.057000
      3 C18        -21.7270   -13.0000    10.9330 ca         1 YQR      -0.092800
      4 C16        -21.0560   -14.7890    12.4070 ca         1 YQR      -0.176000
      5 C15        -21.7500   -14.1680    13.4680 ca         1 YQR      -0.110000
      6 C14        -22.4150   -12.9320    13.2720 ca         1 YQR      -0.138300
      7 C10        -27.5070   -13.0800    15.9730 cy         1 YQR      -0.077900
      8 C12        -25.4760   -11.5850    13.7670 c          1 YQR       0.691100
      9 C21        -22.7070   -11.0220    10.1390 cc         1 YQR      -0.070300
     10 C22        -23.3660    -9.9560     9.3090 c          1 YQR       0.724200
     11 C01        -22.5600   -12.4680    15.8120 c3         1 YQR      -0.094100
     12 C02        -23.1510   -12.2030    14.4080 c3         1 YQR       0.190000
     13 C04        -25.2270   -13.7630    14.6960 c5         1 YQR       0.089000
     14 C05        -26.7170   -13.3030    14.6340 cy         1 YQR       0.137000
     15 C06        -27.8620   -14.3190    14.2910 cy         1 YQR      -0.077900
     16 C07        -28.8050   -13.4290    15.1700 cy         1 YQR      -0.080700
     17 C08        -29.9700   -14.0960    15.9180 c3         1 YQR       0.161800
     18 C25        -21.8830   -12.1140     9.7830 cd         1 YQR      -0.085400
     19 C26        -21.2350   -12.2690     8.4880 cd         1 YQR      -0.085800
     20 C27        -20.9490   -11.2520     7.6190 cc         1 YQR      -0.128000
     21 C31        -20.6860   -13.4490     7.9330 cd         1 YQR       0.232900
     22 N03        -24.6020   -12.4730    14.3660 n          1 YQR      -0.444800
     23 N09        -31.0620   -14.5960    15.0660 n8         1 YQR      -0.993200
     24 N20        -22.9460   -11.2150    11.5170 na         1 YQR      -0.194700
     25 N28        -20.2790   -11.8850     6.5760 na         1 YQR       0.111800
     26 N30        -20.1110   -13.2430     6.7620 nc         1 YQR      -0.574800
     27 O11        -26.7140   -12.1320    13.8010 os         1 YQR      -0.404100
     28 O13        -25.1900   -10.5060    13.2700 o          1 YQR      -0.530000
     29 O23        -23.4380   -10.0450     8.0930 o          1 YQR      -0.703500
     30 O24        -23.9480    -9.0680     9.9170 o          1 YQR      -0.703500
     31 H171       -20.4540   -14.6780    10.3410 ha         1 YQR       0.107000
     32 H161       -20.5320   -15.7250    12.5820 ha         1 YQR       0.090000
     33 H151       -21.7530   -14.6550    14.4390 ha         1 YQR       0.086000
     34 H102       -27.4600   -12.0690    16.3920 hc         1 YQR       0.063950
     35 H011       -23.0440   -11.8200    16.5520 hc         1 YQR       0.035700
     36 H013       -22.7070   -13.5060    16.1290 hc         1 YQR       0.035700
     37 H012       -21.4860   -12.2500    15.8230 hc         1 YQR       0.035700
     38 H021       -22.9990   -11.1280    14.2420 h1         1 YQR       0.083700
     39 H041       -24.9770   -14.5250    13.9460 h1         1 YQR       0.061700
     40 H042       -24.9260   -14.1340    15.6850 h1         1 YQR       0.061700
     41 H061       -28.1280   -14.3960    13.2320 hc         1 YQR       0.063950
     42 H062       -27.6970   -15.3310    14.6790 hc         1 YQR       0.063950
     43 H071       -29.2120   -12.5670    14.6270 hc         1 YQR       0.068700
     44 H082       -29.5720   -14.9400    16.4990 h1         1 YQR       0.023700
     45 H081       -30.3870   -13.3640    16.6240 h1         1 YQR       0.023700
     46 H271       -21.0950   -10.1820     7.6550 h4         1 YQR       0.172000
     47 H291       -20.1400   -11.7400     4.4760 h1         1 YQR       0.041367
     48 H292       -20.0510   -10.1820     5.3480 h1         1 YQR       0.041367
     49 H293       -18.6530   -11.2970     5.3690 h1         1 YQR       0.041367
     50 H311       -20.7170   -14.4600     8.3120 h4         1 YQR       0.022100
     51 H091       -31.8140   -14.9580    15.6650 hn         1 YQR       0.390000
     52 H1         -31.4980   -13.8010    14.5830 hn         1 YQR       0.390000
     53 H201       -23.5710   -10.6270    12.0640 hn         1 YQR       0.388000
     54 C29        -19.7480   -11.2360     5.3670 c3         1 YQR       0.084900
     55 H101       -27.2570   -13.7930    16.7680 hc         1 YQR       0.063950
@<TRIPOS>BOND
     1     1     3 ar  
     2     1     6 ar  
     3     1    24 1   
     4     2     3 ar  
     5     2     4 ar  
     6     2    31 1   
     7     3    18 1   
     8     4     5 ar  
     9     4    32 1   
    10     5     6 ar  
    11     5    33 1   
    12     6    12 1   
    13     7    14 1   
    14     7    16 1   
    15     7    34 1   
    16     7    55 1   
    17     8    22 1   
    18     8    27 1   
    19     8    28 2   
    20     9    10 1   
    21     9    18 2   
    22     9    24 1   
    23    10    29 1   
    24    10    30 1   
    25    11    12 1   
    26    11    35 1   
    27    11    36 1   
    28    11    37 1   
    29    12    22 1   
    30    12    38 1   
    31    13    14 1   
    32    13    22 1   
    33    13    39 1   
    34    13    40 1   
    35    14    15 1   
    36    14    27 1   
    37    15    16 1   
    38    15    41 1   
    39    15    42 1   
    40    16    17 1   
    41    16    43 1   
    42    17    23 1   
    43    17    44 1   
    44    17    45 1   
    45    18    19 1   
    46    19    20 2   
    47    19    21 1   
    48    20    25 1   
    49    20    46 1   
    50    21    26 2   
    51    21    50 1   
    52    23    51 1   
    53    23    52 1   
    54    24    53 1   
    55    25    26 1   
    56    25    54 1   
    57    47    54 1   
    58    48    54 1   
    59    49    54 1   
@<TRIPOS>SUBSTRUCTURE
     1 YQR         1 TEMP              0 ****  ****    0 ROOT
