@<TRIPOS>MOLECULE
YQR
   55    59     1     0     0
SMALL
abcg2


@<TRIPOS>ATOM
      1 C19        -22.4040   -12.2520    12.1840 ca         1 YQR      -0.056200
      2 C17        -21.0750   -14.0620    11.2730 ca         1 YQR      -0.057000
      3 C18        -21.7860   -12.8710    11.0760 ca         1 YQR      -0.092800
      4 C16        -21.0170   -14.5990    12.5410 ca         1 YQR      -0.176000
      5 C15        -21.6490   -13.9690    13.6270 ca         1 YQR      -0.110000
      6 C14        -22.3470   -12.7840    13.4810 ca         1 YQR      -0.138300
      7 C10        -27.4360   -13.0660    15.8250 cy         1 YQR      -0.077900
      8 C12        -25.3000   -11.2060    14.1290 c          1 YQR       0.691100
      9 C21        -22.7800   -10.9730    10.3810 cc         1 YQR      -0.070300
     10 C22        -23.4020    -9.7790     9.6960 c          1 YQR       0.724200
     11 C01        -22.5780   -12.5170    16.0100 c3         1 YQR      -0.094100
     12 C02        -23.0370   -12.0760    14.6270 c3         1 YQR       0.190000
     13 C04        -25.1710   -13.4740    14.4900 c5         1 YQR       0.089000
     14 C05        -26.6210   -13.0130    14.5220 cy         1 YQR       0.137000
     15 C06        -27.7330   -13.7950    13.8260 cy         1 YQR      -0.077900
     16 C07        -28.6800   -13.4160    14.9820 cy         1 YQR      -0.080700
     17 C08        -29.6170   -14.4780    15.5060 c3         1 YQR       0.161800
     18 C25        -22.0350   -12.0430     9.9300 cd         1 YQR      -0.085400
     19 C26        -21.5490   -12.3500     8.5910 cd         1 YQR      -0.085800
     20 C27        -20.9970   -11.5130     7.6410 cc         1 YQR      -0.128000
     21 C31        -21.4850   -13.6180     7.9760 cd         1 YQR       0.232900
     22 N03        -24.4800   -12.2060    14.5070 n          1 YQR      -0.444800
     23 N09        -30.5780   -14.8590    14.4830 n8         1 YQR      -0.993200
     24 N20        -22.9880   -11.1150    11.7280 na         1 YQR      -0.194700
     25 N28        -20.6600   -12.2730     6.5860 na         1 YQR       0.111800
     26 N30        -20.9530   -13.5560     6.7690 nc         1 YQR      -0.574800
     27 O11        -26.5530   -11.6660    14.0270 os         1 YQR      -0.404100
     28 O13        -25.0160   -10.0510    13.8910 o          1 YQR      -0.530000
     29 O23        -23.2000    -9.6500     8.4780 o          1 YQR      -0.703500
     30 O24        -24.0720    -9.0370    10.4430 o          1 YQR      -0.703500
     31 H171       -20.5710   -14.5520    10.4490 ha         1 YQR       0.107000
     32 H161       -20.4730   -15.5180    12.7120 ha         1 YQR       0.090000
     33 H151       -21.5690   -14.4290    14.6030 ha         1 YQR       0.086000
     34 H102       -27.4530   -12.1650    16.4380 hc         1 YQR       0.063950
     35 H011       -23.0760   -11.9160    16.7700 hc         1 YQR       0.035700
     36 H013       -22.7980   -13.5650    16.2110 hc         1 YQR       0.035700
     37 H012       -21.5030   -12.3750    16.1160 hc         1 YQR       0.035700
     38 H021       -22.8240   -11.0070    14.5410 h1         1 YQR       0.083700
     39 H041       -24.9420   -14.0450    13.5830 h1         1 YQR       0.061700
     40 H042       -24.9260   -14.0940    15.3530 h1         1 YQR       0.061700
     41 H061       -27.9850   -13.4930    12.8090 hc         1 YQR       0.063950
     42 H062       -27.5090   -14.8640    13.8290 hc         1 YQR       0.063950
     43 H071       -29.2430   -12.5100    14.7370 hc         1 YQR       0.068700
     44 H082       -29.0300   -15.3620    15.7730 h1         1 YQR       0.023700
     45 H081       -30.0780   -14.1190    16.4380 h1         1 YQR       0.023700
     46 H271       -20.8320   -10.4490     7.6480 h4         1 YQR       0.172000
     47 H291       -20.7220   -12.0360     4.5100 h1         1 YQR       0.041367
     48 H292       -19.8800   -10.7640     5.4060 h1         1 YQR       0.041367
     49 H293       -19.1110   -12.3410     5.1860 h1         1 YQR       0.041367
     50 H311       -21.8270   -14.5650     8.3690 h4         1 YQR       0.022100
     51 H091       -31.1650   -15.6080    14.8280 hn         1 YQR       0.390000
     52 H1         -31.2030   -14.0830    14.3020 hn         1 YQR       0.390000
     53 H201       -23.5230   -10.4430    12.2580 hn         1 YQR       0.388000
     54 C29        -20.0600   -11.8340     5.3500 c3         1 YQR       0.084900
     55 H101       -27.1220   -13.9090    16.4440 hc         1 YQR       0.063950
@<TRIPOS>BOND
     1     1     3 ar  
     2     1     6 ar  
     3     1    24 1   
     4     2     3 ar  
     5     2     4 ar  
     6     2    31 1   
     7     3    18 1   
     8     4     5 ar  
     9     4    32 1   
    10     5     6 ar  
    11     5    33 1   
    12     6    12 1   
    13     7    14 1   
    14     7    16 1   
    15     7    34 1   
    16     7    55 1   
    17     8    22 1   
    18     8    27 1   
    19     8    28 2   
    20     9    10 1   
    21     9    18 2   
    22     9    24 1   
    23    10    29 1   
    24    10    30 1   
    25    11    12 1   
    26    11    35 1   
    27    11    36 1   
    28    11    37 1   
    29    12    22 1   
    30    12    38 1   
    31    13    14 1   
    32    13    22 1   
    33    13    39 1   
    34    13    40 1   
    35    14    15 1   
    36    14    27 1   
    37    15    16 1   
    38    15    41 1   
    39    15    42 1   
    40    16    17 1   
    41    16    43 1   
    42    17    23 1   
    43    17    44 1   
    44    17    45 1   
    45    18    19 1   
    46    19    20 2   
    47    19    21 1   
    48    20    25 1   
    49    20    46 1   
    50    21    26 2   
    51    21    50 1   
    52    23    51 1   
    53    23    52 1   
    54    24    53 1   
    55    25    26 1   
    56    25    54 1   
    57    47    54 1   
    58    48    54 1   
    59    49    54 1   
@<TRIPOS>SUBSTRUCTURE
     1 YQR         1 TEMP              0 ****  ****    0 ROOT
