@<TRIPOS>MOLECULE
YQT
   30    33     1     0     0
SMALL
abcg2


@<TRIPOS>ATOM
      1 C1          -7.1380   -13.6120    10.0370 ca         1 YQT       0.335900
      2 C2          -8.4440   -13.6850    10.4860 ca         1 YQT      -0.167500
      3 C5         -11.4330   -13.3640    10.9500 cc         1 YQT      -0.103100
      4 C12        -12.0220    -8.8310    16.1710 ca         1 YQT       0.310900
      5 C13        -11.1000    -9.3290    15.3020 ca         1 YQT      -0.137000
      6 C14        -11.4900   -10.2970    14.3400 ca         1 YQT      -0.034000
      7 C15        -10.5950   -10.8530    13.4140 ca         1 YQT      -0.065000
      8 C16        -11.0570   -11.7870    12.5070 ca         1 YQT      -0.048800
      9 C17         -8.2870   -11.3800    11.0330 ca         1 YQT      -0.167500
     10 C18         -6.9840   -11.4170    10.5660 ca         1 YQT       0.335900
     11 C3          -9.0600   -12.5410    11.0020 ca         1 YQT       0.041200
     12 C4         -10.4410   -12.5670    11.4620 cd         1 YQT      -0.122400
     13 N6         -12.6070   -13.1370    11.5840 na         1 YQT      -0.235700
     14 C7         -12.4310   -12.1820    12.5490 ca         1 YQT      -0.037200
     15 C8         -13.3320   -11.6550    13.4400 ca         1 YQT      -0.110000
     16 C9         -12.8580   -10.6950    14.3460 ca         1 YQT      -0.078000
     17 C10        -13.7120   -10.0910    15.3070 ca         1 YQT       0.358900
     18 N11        -13.3280    -9.2060    16.1800 nb         1 YQT      -0.661000
     19 N19         -6.4030   -12.5040    10.0720 nb         1 YQT      -0.667000
     20 H1          -6.6590   -14.4990     9.6360 h4         1 YQT       0.016600
     21 H2          -8.9690   -14.6310    10.4480 ha         1 YQT       0.121000
     22 H4         -11.7380    -8.0920    16.9110 h4         1 YQT       0.018100
     23 H5         -10.0720    -8.9900    15.3410 ha         1 YQT       0.121000
     24 H6          -9.5560   -10.5480    13.4390 ha         1 YQT       0.125000
     25 H7          -8.6930   -10.4420    11.3890 ha         1 YQT       0.121000
     26 H8          -6.3830   -10.5140    10.5870 h4         1 YQT       0.016600
     27 H9         -13.4800   -13.5880    11.3630 hn         1 YQT       0.357000
     28 H10        -14.3690   -11.9660    13.4560 ha         1 YQT       0.121000
     29 H11        -14.7600   -10.3830    15.3240 h4         1 YQT       0.015100
     30 H3         -11.3790   -14.0780    10.1420 h4         1 YQT       0.217000
@<TRIPOS>BOND
     1     1     2 ar  
     2     1    19 ar  
     3     1    20 1   
     4     2    11 ar  
     5     2    21 1   
     6     3    12 2   
     7     3    13 1   
     8     3    30 1   
     9     4     5 ar  
    10     4    18 ar  
    11     4    22 1   
    12     5     6 ar  
    13     5    23 1   
    14     6     7 ar  
    15     6    16 ar  
    16     7     8 ar  
    17     7    24 1   
    18     8    12 1   
    19     8    14 ar  
    20     9    10 ar  
    21     9    11 ar  
    22     9    25 1   
    23    10    19 ar  
    24    10    26 1   
    25    11    12 1   
    26    13    14 1   
    27    13    27 1   
    28    14    15 ar  
    29    15    16 ar  
    30    15    28 1   
    31    16    17 ar  
    32    17    18 ar  
    33    17    29 1   
@<TRIPOS>SUBSTRUCTURE
     1 YQT         1 TEMP              0 ****  ****    0 ROOT
