@<TRIPOS>MOLECULE
YQT
   30    33     1     0     0
SMALL
No Charge or Current Charge


@<TRIPOS>ATOM
      1 C1          -7.1420   -13.5970     9.9720 ca         1 YQT       0.335900
      2 C2          -8.4860   -13.6490    10.3760 ca         1 YQT      -0.167500
      3 C5         -11.4280   -13.4770    10.9210 cc         1 YQT      -0.103100
      4 C12        -12.0170    -8.7780    16.1670 ca         1 YQT       0.310900
      5 C13        -11.0840    -9.3040    15.2560 ca         1 YQT      -0.137000
      6 C14        -11.5050   -10.2680    14.3240 ca         1 YQT      -0.034000
      7 C15        -10.6050   -10.8260    13.3900 ca         1 YQT      -0.065000
      8 C16        -11.1040   -11.7760    12.4800 ca         1 YQT      -0.048800
      9 C17         -8.2680   -11.3840    11.1330 ca         1 YQT      -0.167500
     10 C18         -6.9340   -11.4140    10.6960 ca         1 YQT       0.335900
     11 C3          -9.0760   -12.5300    10.9960 ca         1 YQT       0.041200
     12 C4         -10.4960   -12.5700    11.4170 cd         1 YQT      -0.122400
     13 N6         -12.6240   -13.1900    11.6070 na         1 YQT      -0.235700
     14 C7         -12.4120   -12.1890    12.5350 ca         1 YQT      -0.037200
     15 C8         -13.3270   -11.6570    13.4520 ca         1 YQT      -0.110000
     16 C9         -12.8620   -10.6740    14.3530 ca         1 YQT      -0.078000
     17 C10        -13.7240   -10.0910    15.3060 ca         1 YQT       0.358900
     18 N11        -13.3160    -9.1570    16.2000 nb         1 YQT      -0.661000
     19 N19         -6.3670   -12.5020    10.1290 nb         1 YQT      -0.667000
     20 H1          -6.6700   -14.4620     9.5070 h4         1 YQT       0.016600
     21 H2          -9.0430   -14.5670    10.2240 ha         1 YQT       0.121000
     22 H4         -11.7140    -8.0280    16.8970 h4         1 YQT       0.018100
     23 H5         -10.0540    -8.9590    15.2800 ha         1 YQT       0.121000
     24 H6          -9.5590   -10.5410    13.4130 ha         1 YQT       0.125000
     25 H7          -8.6640   -10.4520    11.5150 ha         1 YQT       0.121000
     26 H8          -6.3020   -10.5320    10.7880 h4         1 YQT       0.016600
     27 H9         -13.5100   -13.6650    11.4590 hn         1 YQT       0.357000
     28 H10        -14.3600   -12.0000    13.4750 ha         1 YQT       0.121000
     29 H11        -14.7720   -10.3810    15.3590 h4         1 YQT       0.015100
     30 H3         -11.3520   -14.2460    10.1570 h4         1 YQT       0.217000
@<TRIPOS>BOND
     1     1     2 ar  
     2     1    19 ar  
     3     1    20 1   
     4     2    11 ar  
     5     2    21 1   
     6     3    12 2   
     7     3    13 1   
     8     3    30 1   
     9     4     5 ar  
    10     4    18 ar  
    11     4    22 1   
    12     5     6 ar  
    13     5    23 1   
    14     6     7 ar  
    15     6    16 ar  
    16     7     8 ar  
    17     7    24 1   
    18     8    12 1   
    19     8    14 ar  
    20     9    10 ar  
    21     9    11 ar  
    22     9    25 1   
    23    10    19 ar  
    24    10    26 1   
    25    11    12 1   
    26    13    14 1   
    27    13    27 1   
    28    14    15 ar  
    29    15    16 ar  
    30    15    28 1   
    31    16    17 ar  
    32    17    18 ar  
    33    17    29 1   
@<TRIPOS>SUBSTRUCTURE
     1 YQT         1 TEMP              0 ****  ****    0 ROOT
