@<TRIPOS>MOLECULE
YQU
   46    49     1     0     0
SMALL
No Charge or Current Charge


@<TRIPOS>ATOM
      1 C11         11.5880   -12.5300   -18.8810 c3         1 YQU       0.082600
      2 C13         10.8860   -11.4870   -21.0870 ca         1 YQU      -0.069300
      3 C15         11.7870    -9.9290   -22.7360 ca         1 YQU      -0.122000
      4 C16         10.6750    -9.0900   -22.5570 ca         1 YQU      -0.126000
      5 C17          9.6690    -9.4450   -21.6430 ca         1 YQU      -0.122000
      6 C18          9.7750   -10.6400   -20.9100 ca         1 YQU      -0.101500
      7 C19         12.9020   -14.5530   -18.0220 cc         1 YQU       0.387700
      8 C21          8.4090   -17.2810   -15.1940 cp         1 YQU       0.016000
      9 C22          8.2960   -18.6520   -15.5590 ca         1 YQU       0.127000
     10 C23          7.5190   -19.5360   -14.7900 ca         1 YQU      -0.114000
     11 C24          6.8350   -19.0810   -13.6480 ca         1 YQU      -0.090300
     12 C25          6.9320   -17.7290   -13.2800 ca         1 YQU      -0.114000
     13 C26          7.7070   -16.8410   -14.0460 ca         1 YQU      -0.095000
     14 C27          5.9980   -20.0450   -12.8200 c3         1 YQU      -0.038800
     15 C1           8.6530   -15.0770   -16.4160 ca         1 YQU      -0.084000
     16 C12         11.0010   -12.7760   -20.2860 c3         1 YQU      -0.057100
     17 C14         11.8930   -11.1240   -22.0030 ca         1 YQU      -0.101500
     18 C2           9.2260   -16.3030   -15.9760 cp         1 YQU      -0.090000
     19 C3          10.5930   -16.5480   -16.2610 ca         1 YQU      -0.056000
     20 C4          11.3280   -15.5990   -16.9850 ca         1 YQU       0.039400
     21 C5          10.7520   -14.4310   -17.4210 ca         1 YQU      -0.036200
     22 C6           9.3990   -14.1190   -17.1410 ca         1 YQU      -0.115600
     23 C7           8.7240   -12.8370   -17.5440 c          1 YQU       0.716600
     24 N10         11.7510   -13.7660   -18.0960 na         1 YQU      -0.164600
     25 N20         12.6700   -15.6930   -17.3430 nd         1 YQU      -0.602100
     26 O8           8.9430   -11.8390   -16.8730 o          1 YQU      -0.714500
     27 O9           7.8880   -12.8870   -18.4340 o          1 YQU      -0.714500
     28 Cl28         9.0750   -19.3000   -17.0050 cl         1 YQU      -0.211000
     29 H33         10.9720   -11.8120   -18.3310 h1         1 YQU       0.071700
     30 H32         12.5780   -12.0680   -18.9950 h1         1 YQU       0.071700
     31 H37         12.5680    -9.6550   -23.4430 ha         1 YQU       0.102000
     32 H38         10.5940    -8.1650   -23.1250 ha         1 YQU       0.096000
     33 H39          8.8080    -8.7950   -21.5030 ha         1 YQU       0.102000
     34 H40          8.9920   -10.9070   -20.2030 ha         1 YQU       0.132500
     35 H41         13.8350   -14.2610   -18.4870 h5         1 YQU       0.039800
     36 H42          7.4440   -20.5780   -15.0880 ha         1 YQU       0.114000
     37 H43          6.4100   -17.3620   -12.3990 ha         1 YQU       0.106000
     38 H44          7.7750   -15.7990   -13.7430 ha         1 YQU       0.129000
     39 H47          6.6080   -20.5210   -12.0420 hc         1 YQU       0.034700
     40 H45          5.1670   -19.5290   -12.3250 hc         1 YQU       0.034700
     41 H46          5.5690   -20.8390   -13.4420 hc         1 YQU       0.034700
     42 H29          7.6090   -14.8690   -16.1890 ha         1 YQU       0.122000
     43 H34         11.6360   -13.4970   -20.8160 hc         1 YQU       0.067700
     44 H35         10.0180   -13.2510   -20.1920 hc         1 YQU       0.067700
     45 H36         12.7590   -11.7670   -22.1470 ha         1 YQU       0.132500
     46 H30         11.0750   -17.4590   -15.9180 ha         1 YQU       0.113000
@<TRIPOS>BOND
     1     1    16 1   
     2     1    24 1   
     3     1    29 1   
     4     1    30 1   
     5     2     6 ar  
     6     2    16 1   
     7     2    17 ar  
     8     3     4 ar  
     9     3    17 ar  
    10     3    31 1   
    11     4     5 ar  
    12     4    32 1   
    13     5     6 ar  
    14     5    33 1   
    15     6    34 1   
    16     7    24 1   
    17     7    25 2   
    18     7    35 1   
    19     8     9 ar  
    20     8    13 ar  
    21     8    18 1   
    22     9    10 ar  
    23     9    28 1   
    24    10    11 ar  
    25    10    36 1   
    26    11    12 ar  
    27    11    14 1   
    28    12    13 ar  
    29    12    37 1   
    30    13    38 1   
    31    14    39 1   
    32    14    40 1   
    33    14    41 1   
    34    15    18 ar  
    35    15    22 ar  
    36    15    42 1   
    37    16    43 1   
    38    16    44 1   
    39    17    45 1   
    40    18    19 ar  
    41    19    20 ar  
    42    19    46 1   
    43    20    21 ar  
    44    20    25 1   
    45    21    22 ar  
    46    21    24 1   
    47    22    23 1   
    48    23    26 1   
    49    23    27 1   
@<TRIPOS>SUBSTRUCTURE
     1 YQU         1 TEMP              0 ****  ****    0 ROOT
