@<TRIPOS>MOLECULE
YQU
   46    49     1     0     0
SMALL
abcg2


@<TRIPOS>ATOM
      1 C11         11.6710   -12.5160   -18.8630 c3         1 YQU       0.082600
      2 C13         10.8430   -11.5300   -21.0020 ca         1 YQU      -0.069300
      3 C15         11.5340   -10.1520   -22.8670 ca         1 YQU      -0.122000
      4 C16         10.6430    -9.1610   -22.4810 ca         1 YQU      -0.126000
      5 C17          9.8530    -9.3520   -21.3540 ca         1 YQU      -0.122000
      6 C18          9.9530   -10.5260   -20.6220 ca         1 YQU      -0.101500
      7 C19         12.8810   -14.4340   -17.8660 cc         1 YQU       0.387700
      8 C21          8.4640   -17.2790   -15.2640 cp         1 YQU       0.016000
      9 C22          8.3880   -18.6430   -15.5460 ca         1 YQU       0.127000
     10 C23          7.5920   -19.5050   -14.8070 ca         1 YQU      -0.114000
     11 C24          6.8290   -19.0330   -13.7450 ca         1 YQU      -0.090300
     12 C25          6.8800   -17.6710   -13.4590 ca         1 YQU      -0.114000
     13 C26          7.6800   -16.8220   -14.2040 ca         1 YQU      -0.095000
     14 C27          5.9950   -19.9710   -12.9240 c3         1 YQU      -0.038800
     15 C1           8.6790   -15.1740   -16.5630 ca         1 YQU      -0.084000
     16 C12         10.9610   -12.7890   -20.1890 c3         1 YQU      -0.057100
     17 C14         11.6330   -11.3260   -22.1310 ca         1 YQU      -0.101500
     18 C2           9.2930   -16.3190   -16.0240 cp         1 YQU      -0.090000
     19 C3          10.6580   -16.5030   -16.1750 ca         1 YQU      -0.056000
     20 C4          11.3760   -15.5390   -16.8760 ca         1 YQU       0.039400
     21 C5          10.7430   -14.3890   -17.3890 ca         1 YQU      -0.036200
     22 C6           9.3690   -14.1730   -17.2300 ca         1 YQU      -0.115600
     23 C7           8.6090   -12.9270   -17.6660 c          1 YQU       0.716600
     24 N10         11.7530   -13.6970   -18.0270 na         1 YQU      -0.164600
     25 N20         12.7150   -15.5270   -17.1820 nd         1 YQU      -0.602100
     26 O8           9.0900   -11.8390   -17.2910 o          1 YQU      -0.714500
     27 O9           7.5680   -13.1170   -18.3160 o          1 YQU      -0.714500
     28 CL28         9.2590   -19.3190   -16.8900 cl         1 YQU      -0.211000
     29 H33         11.1650   -11.7290   -18.3120 h1         1 YQU       0.071700
     30 H32         12.6940   -12.1880   -19.0540 h1         1 YQU       0.071700
     31 H37         12.1540   -10.0150   -23.7440 ha         1 YQU       0.102000
     32 H38         10.5630    -8.2470   -23.0550 ha         1 YQU       0.096000
     33 H39          9.1550    -8.5850   -21.0450 ha         1 YQU       0.102000
     34 H40          9.3380   -10.6620   -19.7390 ha         1 YQU       0.132500
     35 H41         13.8190   -14.1000   -18.2870 h5         1 YQU       0.039800
     36 H42          7.5590   -20.5560   -15.0680 ha         1 YQU       0.114000
     37 H43          6.2910   -17.2690   -12.6440 ha         1 YQU       0.106000
     38 H44          7.7100   -15.7680   -13.9560 ha         1 YQU       0.129000
     39 H47          6.5770   -20.3860   -12.0990 hc         1 YQU       0.034700
     40 H45          5.1360   -19.4600   -12.4910 hc         1 YQU       0.034700
     41 H46          5.6300   -20.8080   -13.5180 hc         1 YQU       0.034700
     42 H29          7.6090   -15.0620   -16.4390 ha         1 YQU       0.122000
     43 H34         11.5180   -13.5460   -20.7450 hc         1 YQU       0.067700
     44 H35          9.9670   -13.2020   -19.9990 hc         1 YQU       0.067700
     45 H36         12.3300   -12.0970   -22.4380 ha         1 YQU       0.132500
     46 H30         11.1650   -17.3630   -15.7580 ha         1 YQU       0.113000
@<TRIPOS>BOND
     1     1    16 1   
     2     1    24 1   
     3     1    29 1   
     4     1    30 1   
     5     2     6 ar  
     6     2    16 1   
     7     2    17 ar  
     8     3     4 ar  
     9     3    17 ar  
    10     3    31 1   
    11     4     5 ar  
    12     4    32 1   
    13     5     6 ar  
    14     5    33 1   
    15     6    34 1   
    16     7    24 1   
    17     7    25 2   
    18     7    35 1   
    19     8     9 ar  
    20     8    13 ar  
    21     8    18 1   
    22     9    10 ar  
    23     9    28 1   
    24    10    11 ar  
    25    10    36 1   
    26    11    12 ar  
    27    11    14 1   
    28    12    13 ar  
    29    12    37 1   
    30    13    38 1   
    31    14    39 1   
    32    14    40 1   
    33    14    41 1   
    34    15    18 ar  
    35    15    22 ar  
    36    15    42 1   
    37    16    43 1   
    38    16    44 1   
    39    17    45 1   
    40    18    19 ar  
    41    19    20 ar  
    42    19    46 1   
    43    20    21 ar  
    44    20    25 1   
    45    21    22 ar  
    46    21    24 1   
    47    22    23 1   
    48    23    26 1   
    49    23    27 1   
@<TRIPOS>SUBSTRUCTURE
     1 YQU         1 TEMP              0 ****  ****    0 ROOT
