@<TRIPOS>MOLECULE
YQW
   54    58     1     0     0
SMALL
No Charge or Current Charge


@<TRIPOS>ATOM
      1 C10        -21.8390   -11.8880     9.7540 cc         1 YQW      -0.184200
      2 C11        -21.2700   -12.0030     8.4180 cc         1 YQW       0.028400
      3 C13        -20.4580   -13.4250     6.5290 c          1 YQW       0.540200
      4 N15        -20.1240   -12.2230     5.9270 ns         1 YQW      -0.234900
      5 C17        -20.8480   -10.8570     7.6320 cc         1 YQW       0.408500
      6 C19        -20.9790   -14.0190    10.9840 ca         1 YQW      -0.063000
      7 C21        -21.7020   -14.1480    13.3180 ca         1 YQW      -0.110000
      8 C01        -22.5050   -12.6220    15.7750 c3         1 YQW      -0.094100
      9 C02        -23.0910   -12.2490    14.3940 c3         1 YQW       0.188000
     10 C03        -22.3680   -12.9030    13.2050 ca         1 YQW      -0.132300
     11 C04        -22.3440   -12.2740    11.9410 ca         1 YQW      -0.058200
     12 C06        -22.6230   -10.8160    10.2400 cd         1 YQW      -0.041300
     13 C07        -23.2690    -9.6750     9.4900 c          1 YQW       0.719200
     14 C12        -21.0580   -13.2580     7.8640 cd         1 YQW      -0.324200
     15 C18        -21.7050   -12.8200    10.8590 ca         1 YQW      -0.076800
     16 C20        -21.0030   -14.6910    12.2200 ca         1 YQW      -0.162000
     17 C23        -25.1880   -13.8000    14.5560 c5         1 YQW       0.087000
     18 C24        -26.6700   -13.3130    14.5530 cy         1 YQW       0.137000
     19 C25        -27.8350   -14.2770    14.1340 cy         1 YQW      -0.077900
     20 C26        -28.7550   -13.4560    15.1010 cy         1 YQW      -0.079700
     21 C27        -29.9220   -14.1700    15.8000 c3         1 YQW       0.160800
     22 C29        -27.4430   -13.2000    15.9160 cy         1 YQW      -0.077900
     23 C31        -25.4120   -11.5430    13.8290 c          1 YQW       0.691100
     24 N05        -22.8950   -11.0500    11.6100 na         1 YQW      -0.188700
     25 N16        -20.2870   -10.9430     6.4210 nd         1 YQW      -0.458300
     26 N22        -24.5460   -12.4950    14.3360 n          1 YQW      -0.443800
     27 N28        -31.0310   -14.5750    14.9190 n8         1 YQW      -0.993200
     28 O08        -23.8560    -8.8320    10.1550 o          1 YQW      -0.690500
     29 O09        -23.2880    -9.6600     8.2690 o          1 YQW      -0.690500
     30 O14        -20.2760   -14.5080     5.9950 o          1 YQW      -0.603000
     31 O30        -26.6570   -12.0740    13.8280 os         1 YQW      -0.403100
     32 O32        -25.1140   -10.4290    13.4270 o          1 YQW      -0.532000
     33 H151       -19.7050   -12.3230     5.0060 hn         1 YQW       0.330500
     34 H171       -20.8950    -9.8450     8.0080 h4         1 YQW       0.059800
     35 H191       -20.3850   -14.4250    10.1730 ha         1 YQW       0.112000
     36 H211       -21.6980   -14.6970    14.2550 ha         1 YQW       0.090000
     37 H012       -22.9790   -12.0210    16.5600 hc         1 YQW       0.037367
     38 H011       -22.6680   -13.6780    16.0170 hc         1 YQW       0.037367
     39 H013       -21.4270   -12.4230    15.8000 hc         1 YQW       0.037367
     40 H021       -22.9240   -11.1670    14.3080 h1         1 YQW       0.084700
     41 H121       -21.3840   -14.1780     8.3250 ha         1 YQW       0.204000
     42 H201       -20.4640   -15.6280    12.3340 ha         1 YQW       0.095000
     43 H231       -24.9580   -14.4940    13.7360 h1         1 YQW       0.061700
     44 H232       -24.8820   -14.2630    15.5020 h1         1 YQW       0.061700
     45 H252       -28.1140   -14.2560    13.0750 hc         1 YQW       0.064700
     46 H251       -27.6830   -15.3230    14.4280 hc         1 YQW       0.064700
     47 H261       -29.1540   -12.5430    14.6410 hc         1 YQW       0.068700
     48 H272       -29.5310   -15.0680    16.2980 h1         1 YQW       0.024700
     49 H271       -30.3200   -13.4970    16.5730 h1         1 YQW       0.024700
     50 H291       -27.1950   -13.9850    16.6410 hc         1 YQW       0.064700
     51 H292       -27.3750   -12.2310    16.4230 hc         1 YQW       0.064700
     52 H051       -23.5170   -10.4880    12.1870 hn         1 YQW       0.391000
     53 H282       -31.7830   -14.9780    15.4920 hn         1 YQW       0.391000
     54 H1         -31.4590   -13.7340    14.5140 hn         1 YQW       0.391000
@<TRIPOS>BOND
     1     1     2 1   
     2     1    12 2   
     3     1    15 1   
     4     2     5 1   
     5     2    14 2   
     6     3     4 1   
     7     3    14 1   
     8     3    30 2   
     9     4    25 1   
    10     4    33 1   
    11     5    25 2   
    12     5    34 1   
    13     6    15 ar  
    14     6    16 ar  
    15     6    35 1   
    16     7    10 ar  
    17     7    16 ar  
    18     7    36 1   
    19     8     9 1   
    20     8    37 1   
    21     8    38 1   
    22     8    39 1   
    23     9    10 1   
    24     9    26 1   
    25     9    40 1   
    26    10    11 ar  
    27    11    15 ar  
    28    11    24 1   
    29    12    13 1   
    30    12    24 1   
    31    13    28 1   
    32    13    29 1   
    33    14    41 1   
    34    16    42 1   
    35    17    18 1   
    36    17    26 1   
    37    17    43 1   
    38    17    44 1   
    39    18    19 1   
    40    18    22 1   
    41    18    31 1   
    42    19    20 1   
    43    19    45 1   
    44    19    46 1   
    45    20    21 1   
    46    20    22 1   
    47    20    47 1   
    48    21    27 1   
    49    21    48 1   
    50    21    49 1   
    51    22    50 1   
    52    22    51 1   
    53    23    26 1   
    54    23    31 1   
    55    23    32 2   
    56    24    52 1   
    57    27    53 1   
    58    27    54 1   
@<TRIPOS>SUBSTRUCTURE
     1 YQW         1 TEMP              0 ****  ****    0 ROOT
