@<TRIPOS>MOLECULE
YQW
   54    58     1     0     0
SMALL
abcg2


@<TRIPOS>ATOM
      1 C10        -21.9500   -11.9380     9.8380 cc         1 YQW      -0.184200
      2 C11        -21.4580   -12.1750     8.4880 cc         1 YQW       0.028400
      3 C13        -21.1280   -13.5680     6.5120 c          1 YQW       0.540200
      4 N15        -20.3950   -12.5080     6.0370 ns         1 YQW      -0.234900
      5 C17        -20.6500   -11.1890     7.8270 cc         1 YQW       0.408500
      6 C19        -21.2070   -14.1040    11.0870 ca         1 YQW      -0.063000
      7 C21        -21.7970   -14.0520    13.4390 ca         1 YQW      -0.110000
      8 C01        -22.5170   -12.5230    15.8720 c3         1 YQW      -0.094100
      9 C02        -23.0300   -12.0890    14.5060 c3         1 YQW       0.188000
     10 C03        -22.3800   -12.8030    13.3390 ca         1 YQW      -0.132300
     11 C04        -22.3720   -12.2170    12.0660 ca         1 YQW      -0.058200
     12 C06        -22.6000   -10.8250    10.3270 cd         1 YQW      -0.041300
     13 C07        -23.1130    -9.5800     9.6410 c          1 YQW       0.719200
     14 C12        -21.6720   -13.3440     7.8300 cd         1 YQW      -0.324200
     15 C18        -21.7990   -12.8450    10.9390 ca         1 YQW      -0.076800
     16 C20        -21.2160   -14.6940    12.3330 ca         1 YQW      -0.162000
     17 C23        -25.1650   -13.4920    14.5160 c5         1 YQW       0.087000
     18 C24        -26.6170   -13.0380    14.5040 cy         1 YQW       0.137000
     19 C25        -27.7060   -13.8790    13.8360 cy         1 YQW      -0.077900
     20 C26        -28.6730   -13.4780    14.9670 cy         1 YQW      -0.079700
     21 C27        -29.5640   -14.5540    15.5440 c3         1 YQW       0.160800
     22 C29        -27.4510   -13.0310    15.7960 cy         1 YQW      -0.077900
     23 C31        -25.3000   -11.2570    13.9890 c          1 YQW       0.691100
     24 N05        -22.8420   -11.0060    11.6540 na         1 YQW      -0.188700
     25 N16        -20.1430   -11.3620     6.6570 nd         1 YQW      -0.458300
     26 N22        -24.4770   -12.2250    14.4380 n          1 YQW      -0.443800
     27 N28        -30.5090   -15.0240    14.5440 n8         1 YQW      -0.993200
     28 O08        -23.5930    -8.7190    10.4000 o          1 YQW      -0.690500
     29 O09        -23.0160    -9.5540     8.4020 o          1 YQW      -0.690500
     30 O14        -21.2820   -14.5830     5.8400 o          1 YQW      -0.603000
     31 O30        -26.5530   -11.7210    13.9320 os         1 YQW      -0.403100
     32 O32        -25.0160   -10.1230    13.6640 o          1 YQW      -0.532000
     33 H151       -19.9750   -12.5930     5.1210 hn         1 YQW       0.330500
     34 H171       -20.4140   -10.2540     8.3140 h4         1 YQW       0.059800
     35 H191       -20.7470   -14.6070    10.2450 ha         1 YQW       0.112000
     36 H211       -21.7700   -14.5580    14.3960 ha         1 YQW       0.090000
     37 H012       -22.9960   -11.9280    16.6490 hc         1 YQW       0.037367
     38 H011       -22.7130   -13.5730    16.0840 hc         1 YQW       0.037367
     39 H013       -21.4410   -12.3640    15.9380 hc         1 YQW       0.037367
     40 H021       -22.8230   -11.0210    14.4130 h1         1 YQW       0.084700
     41 H121       -22.2730   -14.1330     8.2610 ha         1 YQW       0.204000
     42 H201       -20.7660   -15.6680    12.4700 ha         1 YQW       0.095000
     43 H231       -24.9290   -14.1320    13.6580 h1         1 YQW       0.061700
     44 H232       -24.9220   -14.0400    15.4260 h1         1 YQW       0.061700
     45 H252       -27.9590   -13.6230    12.8070 hc         1 YQW       0.064700
     46 H251       -27.4530   -14.9410    13.8800 hc         1 YQW       0.064700
     47 H261       -29.2760   -12.6130    14.6720 hc         1 YQW       0.068700
     48 H272       -28.9400   -15.3990    15.8510 h1         1 YQW       0.024700
     49 H271       -30.0390   -14.1720    16.4600 h1         1 YQW       0.024700
     50 H291       -27.1180   -13.8170    16.4770 hc         1 YQW       0.064700
     51 H292       -27.5070   -12.0900    16.3440 hc         1 YQW       0.064700
     52 H051       -23.3780   -10.3470    12.2040 hn         1 YQW       0.391000
     53 H282       -31.0590   -15.7830    14.9250 hn         1 YQW       0.391000
     54 H1         -31.1700   -14.2860    14.3340 hn         1 YQW       0.391000
@<TRIPOS>BOND
     1     1     2 1   
     2     1    12 2   
     3     1    15 1   
     4     2     5 1   
     5     2    14 2   
     6     3     4 1   
     7     3    14 1   
     8     3    30 2   
     9     4    25 1   
    10     4    33 1   
    11     5    25 2   
    12     5    34 1   
    13     6    15 ar  
    14     6    16 ar  
    15     6    35 1   
    16     7    10 ar  
    17     7    16 ar  
    18     7    36 1   
    19     8     9 1   
    20     8    37 1   
    21     8    38 1   
    22     8    39 1   
    23     9    10 1   
    24     9    26 1   
    25     9    40 1   
    26    10    11 ar  
    27    11    15 ar  
    28    11    24 1   
    29    12    13 1   
    30    12    24 1   
    31    13    28 1   
    32    13    29 1   
    33    14    41 1   
    34    16    42 1   
    35    17    18 1   
    36    17    26 1   
    37    17    43 1   
    38    17    44 1   
    39    18    19 1   
    40    18    22 1   
    41    18    31 1   
    42    19    20 1   
    43    19    45 1   
    44    19    46 1   
    45    20    21 1   
    46    20    22 1   
    47    20    47 1   
    48    21    27 1   
    49    21    48 1   
    50    21    49 1   
    51    22    50 1   
    52    22    51 1   
    53    23    26 1   
    54    23    31 1   
    55    23    32 2   
    56    24    52 1   
    57    27    53 1   
    58    27    54 1   
@<TRIPOS>SUBSTRUCTURE
     1 YQW         1 TEMP              0 ****  ****    0 ROOT
