@<TRIPOS>MOLECULE
YQY
   41    43     1     0     0
SMALL
No Charge or Current Charge


@<TRIPOS>ATOM
      1 F26          1.6040    -4.0840    -1.1170 f          1 YQY      -0.163000
      2 C9           2.0730    -3.4070    -0.0360 ca         1 YQY       0.056000
      3 C10          2.7610    -4.1090     0.9660 ca         1 YQY       0.182000
      4 F22          2.9640    -5.4410     0.8490 f          1 YQY      -0.155000
      5 C11          3.2300    -3.4390     2.1000 ca         1 YQY      -0.169000
      6 C12          3.0370    -2.0560     2.2230 ca         1 YQY      -0.032000
      7 C13          2.3720    -1.3200     1.2130 ca         1 YQY      -0.182600
      8 C16          2.3000     0.1850     1.3970 c          1 YQY       0.630700
      9 O18          2.0050     0.5670     2.5260 o          1 YQY      -0.598100
     10 N17          2.5160     0.9450     0.1970 nj         1 YQY      -0.409800
     11 C21          2.8850     2.3130     0.6940 cy         1 YQY       0.086500
     12 C20          4.1680     2.1790    -0.2120 cy         1 YQY       0.150000
     13 O23          4.0470     2.6810    -1.5360 oh         1 YQY      -0.636000
     14 C24          5.5030     2.7550     0.3010 c3         1 YQY       0.118800
     15 N25          6.5590     2.8620    -0.7480 n8         1 YQY      -1.026200
     16 C19          3.9470     0.6200    -0.0950 cy         1 YQY       0.086500
     17 C8           1.8430    -2.0140     0.0890 ca         1 YQY       0.332000
     18 N7           1.0720    -1.3900    -0.9080 nu         1 YQY      -0.991000
     19 C5           0.0490    -0.4250    -0.8820 ca         1 YQY       0.282000
     20 C6          -0.3220     0.2700    -2.0610 ca         1 YQY       0.128000
     21 F15          0.3070     0.0140    -3.2340 f          1 YQY      -0.177000
     22 C1          -1.3390     1.2380    -2.0320 ca         1 YQY      -0.093000
     23 C4          -0.6430    -0.1520     0.3140 ca         1 YQY      -0.128000
     24 C3          -1.6620     0.8190     0.3420 ca         1 YQY      -0.057000
     25 C2          -2.0040     1.5140    -0.8290 ca         1 YQY       0.188000
     26 I14         -3.5720     3.0070    -0.7810 i          1 YQY      -0.300000
     27 H11          3.7550    -3.9900     2.8770 ha         1 YQY       0.143000
     28 H12          3.4350    -1.5450     3.0990 ha         1 YQY       0.138000
     29 H211         2.1890     3.0970     0.3780 h1         1 YQY       0.066950
     30 H212         3.1380     2.4240     1.7550 h1         1 YQY       0.066950
     31 H191         4.5180     0.1590     0.7220 h1         1 YQY       0.066950
     32 H192         4.0890     0.0680    -1.0310 h1         1 YQY       0.066950
     33 H23          4.9810     2.9680    -1.7160 ho         1 YQY       0.479000
     34 H241         5.3020     3.7630     0.6910 h1         1 YQY       0.048700
     35 H242         5.8700     2.1380     1.1340 h1         1 YQY       0.048700
     36 H251         7.3950     3.3060    -0.3400 hn         1 YQY       0.409000
     37 H252         6.9000     1.9200    -0.9880 hn         1 YQY       0.409000
     38 H7           1.2070    -1.8020    -1.8340 hn         1 YQY       0.516000
     39 H4          -0.4000    -0.6940     1.2220 ha         1 YQY       0.135000
     40 H1          -1.6100     1.7710    -2.9380 ha         1 YQY       0.147000
     41 H3          -2.1900     1.0300     1.2690 ha         1 YQY       0.136000
@<TRIPOS>BOND
     1     1     2 1   
     2     2     3 ar  
     3     2    17 ar  
     4     3     4 1   
     5     3     5 ar  
     6     5     6 ar  
     7     5    27 1   
     8     6     7 ar  
     9     6    28 1   
    10     7     8 1   
    11     7    17 ar  
    12     8     9 2   
    13     8    10 1   
    14    10    11 1   
    15    10    16 1   
    16    11    12 1   
    17    11    29 1   
    18    11    30 1   
    19    12    13 1   
    20    12    14 1   
    21    12    16 1   
    22    13    33 1   
    23    14    15 1   
    24    14    34 1   
    25    14    35 1   
    26    15    36 1   
    27    15    37 1   
    28    16    31 1   
    29    16    32 1   
    30    17    18 1   
    31    18    19 1   
    32    18    38 1   
    33    19    20 ar  
    34    19    23 ar  
    35    20    21 1   
    36    20    22 ar  
    37    22    25 ar  
    38    22    40 1   
    39    23    24 ar  
    40    23    39 1   
    41    24    25 ar  
    42    24    41 1   
    43    25    26 1   
@<TRIPOS>SUBSTRUCTURE
     1 YQY         1 TEMP              0 ****  ****    0 ROOT
