@<TRIPOS>MOLECULE
YQY
   41    43     1     0     0
SMALL
bcc


@<TRIPOS>ATOM
      1 F26          1.8330    -4.0420    -1.0610 f          1 YQY      -0.127900
      2 C9           2.1960    -3.3920     0.0510 ca         1 YQY       0.020900
      3 C10          2.7970    -4.0940     1.0750 ca         1 YQY       0.146900
      4 F22          3.0100    -5.4010     0.9110 f          1 YQY      -0.119900
      5 C11          3.1460    -3.4690     2.2540 ca         1 YQY      -0.187000
      6 C12          2.8920    -2.1130     2.3740 ca         1 YQY      -0.050000
      7 C13          2.3360    -1.3770     1.3330 ca         1 YQY      -0.182600
      8 C16          2.1640     0.0930     1.5560 c          1 YQY       0.697700
      9 O18          1.5940     0.5230     2.5500 o          1 YQY      -0.598100
     10 N17          2.6960     0.8900     0.6320 nj         1 YQY      -0.476800
     11 C21          2.7570     2.3410     0.6230 cy         1 YQY       0.086500
     12 C20          3.9180     2.2470    -0.3870 cy         1 YQY       0.126800
     13 O23          3.7020     2.9330    -1.5750 oh         1 YQY      -0.573800
     14 C24          5.2660     2.6420     0.2020 c3         1 YQY       0.118800
     15 N25          6.2740     2.5500    -0.8420 n8         1 YQY      -0.915800
     16 C19          3.6760     0.7080    -0.4300 cy         1 YQY       0.086500
     17 C8           1.9460    -2.0250     0.1500 ca         1 YQY       0.193600
     18 N7           1.3420    -1.3860    -0.9170 nu         1 YQY      -0.659000
     19 C5           0.3560    -0.4170    -0.8130 ca         1 YQY       0.143600
     20 C6           0.2140     0.5290    -1.8260 ca         1 YQY       0.092900
     21 F15          1.0350     0.4530    -2.8840 f          1 YQY      -0.141900
     22 C1          -0.7310     1.5310    -1.7910 ca         1 YQY      -0.111000
     23 C4          -0.5300    -0.3360     0.2590 ca         1 YQY      -0.146000
     24 C3          -1.4800     0.6710     0.3330 ca         1 YQY      -0.075000
     25 C2          -1.5740     1.6010    -0.6900 ca         1 YQY       0.050900
     26 I14         -3.0060     3.1330    -0.5880 i          1 YQY      -0.162900
     27 H11          3.6090    -4.0290     3.0550 ha         1 YQY       0.161000
     28 H12          3.1690    -1.6060     3.2880 ha         1 YQY       0.156000
     29 H211         1.8520     2.8050     0.2250 h1         1 YQY       0.066950
     30 H212         3.0000     2.7920     1.5890 h1         1 YQY       0.066950
     31 H191         4.5150     0.0630    -0.1600 h1         1 YQY       0.066950
     32 H192         3.2440     0.3670    -1.3700 h1         1 YQY       0.066950
     33 H23          4.5880     3.0360    -1.9640 ho         1 YQY       0.440000
     34 H241         5.2060     3.6830     0.5310 h1         1 YQY       0.048700
     35 H242         5.4810     2.0410     1.0940 h1         1 YQY       0.048700
     36 H251         7.0870     3.1000    -0.5990 hn         1 YQY       0.353800
     37 H252         6.5950     1.5960    -0.9470 hn         1 YQY       0.353800
     38 H7           1.5090    -1.7700    -1.8330 hn         1 YQY       0.460800
     39 H4          -0.4830    -1.0700     1.0520 ha         1 YQY       0.153000
     40 H1          -0.7830     2.2390    -2.6070 ha         1 YQY       0.165000
     41 H3          -2.1430     0.7050     1.1850 ha         1 YQY       0.154000
@<TRIPOS>BOND
     1     1     2 1   
     2     2     3 ar  
     3     2    17 ar  
     4     3     4 1   
     5     3     5 ar  
     6     5     6 ar  
     7     5    27 1   
     8     6     7 ar  
     9     6    28 1   
    10     7     8 1   
    11     7    17 ar  
    12     8     9 2   
    13     8    10 1   
    14    10    11 1   
    15    10    16 1   
    16    11    12 1   
    17    11    29 1   
    18    11    30 1   
    19    12    13 1   
    20    12    14 1   
    21    12    16 1   
    22    13    33 1   
    23    14    15 1   
    24    14    34 1   
    25    14    35 1   
    26    15    36 1   
    27    15    37 1   
    28    16    31 1   
    29    16    32 1   
    30    17    18 1   
    31    18    19 1   
    32    18    38 1   
    33    19    20 ar  
    34    19    23 ar  
    35    20    21 1   
    36    20    22 ar  
    37    22    25 ar  
    38    22    40 1   
    39    23    24 ar  
    40    23    39 1   
    41    24    25 ar  
    42    24    41 1   
    43    25    26 1   
@<TRIPOS>SUBSTRUCTURE
     1 YQY         1 TEMP              0 ****  ****    0 ROOT
