@<TRIPOS>MOLECULE
YQZ
   48    51     1     0     0
SMALL
No Charge or Current Charge


@<TRIPOS>ATOM
      1 C10          8.2970    12.9090    28.1310 ca         1 YQZ      -0.108000
      2 C11          8.9600    11.7380    27.7310 ca         1 YQZ      -0.112000
      3 C15         12.1890    12.1460    19.2490 cc         1 YQZ       0.804900
      4 C18         15.3030    13.6340    19.0620 c          1 YQZ       0.564000
      5 C20         15.3360    15.0370    18.6220 cc         1 YQZ      -0.394200
      6 C21         14.2450    15.8190    18.2730 cd         1 YQZ       0.189800
      7 C23         12.9740    13.9080    18.7620 cd         1 YQZ       0.688400
      8 C25         14.3340    17.2540    17.8220 c3         1 YQZ      -0.057200
      9 C26         14.1310    17.4350    16.2990 c3         1 YQZ      -0.073400
     10 C27         15.2010    16.7280    15.4410 c3         1 YQZ      -0.095100
     11 C1           9.5960    12.9940    21.6680 ca         1 YQZ      -0.098500
     12 C12          9.2050    11.4990    26.3670 ca         1 YQZ      -0.099500
     13 C2           9.5560    11.6840    21.1550 ca         1 YQZ      -0.107300
     14 C3           9.2670    10.6160    22.0250 ca         1 YQZ      -0.098500
     15 C4           9.0210    10.8560    23.3880 ca         1 YQZ      -0.099500
     16 C5           9.0560    12.1700    23.9210 cp         1 YQZ      -0.033000
     17 C6           9.3490    13.2330    23.0300 ca         1 YQZ      -0.099500
     18 C7           8.7940    12.4250    25.3740 cp         1 YQZ      -0.035000
     19 C8           8.1260    13.6010    25.8040 ca         1 YQZ      -0.099500
     20 C9           7.8800    13.8400    27.1670 ca         1 YQZ      -0.112000
     21 N14         11.2610    11.2030    19.4610 nu         1 YQZ      -0.908100
     22 N16         13.4650    11.8910    19.4420 nd         1 YQZ      -0.568800
     23 N17         14.0140    13.1250    19.1040 n          1 YQZ      -0.061500
     24 N22         12.9880    15.2050    18.3570 na         1 YQZ      -0.763900
     25 N24         11.7980    13.3700    18.8250 nc         1 YQZ      -0.770000
     26 O19         16.3010    12.9900    19.3560 o          1 YQZ      -0.474000
     27 H34          8.1070    13.0950    29.1860 ha         1 YQZ       0.112000
     28 H35          9.2870    11.0170    28.4760 ha         1 YQZ       0.112500
     29 H38          9.2580    10.5410    19.3560 h1         1 YQZ       0.063200
     30 H37          9.4580    12.2730    19.0820 h1         1 YQZ       0.063200
     31 H40         16.3350    15.4530    18.5790 ha         1 YQZ       0.222000
     32 H43         13.5830    17.8530    18.3520 hc         1 YQZ       0.067200
     33 H42         15.3060    17.6770    18.1040 hc         1 YQZ       0.067200
     34 H45         13.1390    17.0630    16.0150 hc         1 YQZ       0.045200
     35 H44         14.1430    18.5070    16.0650 hc         1 YQZ       0.045200
     36 H48         15.0290    16.9270    14.3770 hc         1 YQZ       0.041367
     37 H47         16.2050    17.0870    15.6990 hc         1 YQZ       0.041367
     38 H46         15.1710    15.6420    15.5930 hc         1 YQZ       0.041367
     39 H28          9.8240    13.8300    21.0090 ha         1 YQZ       0.112500
     40 H36          9.7320    10.5920    26.0810 ha         1 YQZ       0.114500
     41 H29          9.2310     9.5970    21.6460 ha         1 YQZ       0.112500
     42 H30          8.7870    10.0140    24.0340 ha         1 YQZ       0.115000
     43 H31          9.4000    14.2530    23.4010 ha         1 YQZ       0.115000
     44 H32          7.7830    14.3280    25.0730 ha         1 YQZ       0.114500
     45 H33          7.3630    14.7470    27.4740 ha         1 YQZ       0.112500
     46 H39         11.6750    10.3790    19.8830 hn         1 YQZ       0.494000
     47 H41         12.1140    15.6610    18.1320 hn         1 YQZ       0.534000
     48 C13          9.8260    11.4260    19.6780 c3         1 YQZ       0.277100
@<TRIPOS>BOND
     1     1     2 ar  
     2     1    20 ar  
     3     1    27 1   
     4     2    12 ar  
     5     2    28 1   
     6     3    21 1   
     7     3    22 2   
     8     3    25 1   
     9     4     5 1   
    10     4    23 1   
    11     4    26 2   
    12     5     6 2   
    13     5    31 1   
    14     6     8 1   
    15     6    24 1   
    16     7    23 1   
    17     7    24 1   
    18     7    25 2   
    19     8     9 1   
    20     8    32 1   
    21     8    33 1   
    22     9    10 1   
    23     9    34 1   
    24     9    35 1   
    25    10    36 1   
    26    10    37 1   
    27    10    38 1   
    28    11    13 ar  
    29    11    17 ar  
    30    11    39 1   
    31    12    18 ar  
    32    12    40 1   
    33    13    14 ar  
    34    13    48 1   
    35    14    15 ar  
    36    14    41 1   
    37    15    16 ar  
    38    15    42 1   
    39    16    17 ar  
    40    16    18 1   
    41    17    43 1   
    42    18    19 ar  
    43    19    20 ar  
    44    19    44 1   
    45    20    45 1   
    46    21    46 1   
    47    21    48 1   
    48    22    23 1   
    49    24    47 1   
    50    29    48 1   
    51    30    48 1   
@<TRIPOS>SUBSTRUCTURE
     1 YQZ         1 TEMP              0 ****  ****    0 ROOT
