@<TRIPOS>MOLECULE
YQZ
   48    51     1     0     0
SMALL
abcg2


@<TRIPOS>ATOM
      1 C10          8.7640    13.5820    27.6580 ca         1 YQZ      -0.108000
      2 C11          9.9980    13.2140    27.1360 ca         1 YQZ      -0.112000
      3 C15         11.8050    11.8280    18.9410 cc         1 YQZ       0.804900
      4 C18         15.0500    12.9690    18.7820 c          1 YQZ       0.564000
      5 C20         15.3510    14.3790    18.7700 cc         1 YQZ      -0.394200
      6 C21         14.3940    15.3400    18.8200 cd         1 YQZ       0.189800
      7 C23         12.7200    13.6890    18.8910 cd         1 YQZ       0.688400
      8 C25         14.6940    16.8020    18.7700 c3         1 YQZ      -0.057200
      9 C26         14.2500    17.4610    17.4570 c3         1 YQZ      -0.073400
     10 C27         14.9500    16.8930    16.2320 c3         1 YQZ      -0.095100
     11 C1           8.5500    12.7170    21.2250 ca         1 YQZ      -0.098500
     12 C12         10.1080    12.8270    25.8090 ca         1 YQZ      -0.099500
     13 C2           9.3750    11.6630    20.8500 ca         1 YQZ      -0.107300
     14 C3          10.0710    10.9860    21.8480 ca         1 YQZ      -0.098500
     15 C4           9.9440    11.3520    23.1780 ca         1 YQZ      -0.099500
     16 C5           9.1110    12.4060    23.5580 cp         1 YQZ      -0.033000
     17 C6           8.4100    13.0770    22.5580 ca         1 YQZ      -0.099500
     18 C7           8.9880    12.8030    24.9750 cp         1 YQZ      -0.035000
     19 C8           7.7540    13.1780    25.5110 ca         1 YQZ      -0.099500
     20 C9           7.6430    13.5650    26.8390 ca         1 YQZ      -0.112000
     21 N14         10.8180    10.9050    18.9650 nu         1 YQZ      -0.908100
     22 N16         13.0820    11.5120    18.8620 nd         1 YQZ      -0.568800
     23 N17         13.6740    12.7340    18.8260 n          1 YQZ      -0.061500
     24 N22         13.0780    14.9880    18.8820 na         1 YQZ      -0.763900
     25 N24         11.5280    13.1620    18.9580 nc         1 YQZ      -0.770000
     26 O19         15.8470    12.0540    18.7420 o          1 YQZ      -0.474000
     27 H34          8.6790    13.8840    28.6930 ha         1 YQZ       0.112000
     28 H35         10.8800    13.2340    27.7630 ha         1 YQZ       0.112500
     29 H38          8.8630    10.3730    19.2250 h1         1 YQZ       0.063200
     30 H37          9.0850    12.0410    18.7650 h1         1 YQZ       0.063200
     31 H40         16.3890    14.6690    18.7150 ha         1 YQZ       0.222000
     32 H43         14.1990    17.3010    19.6080 hc         1 YQZ       0.067200
     33 H42         15.7660    16.9390    18.9070 hc         1 YQZ       0.067200
     34 H45         13.1660    17.3720    17.3430 hc         1 YQZ       0.045200
     35 H44         14.4580    18.5290    17.5410 hc         1 YQZ       0.045200
     36 H48         14.6480    17.4310    15.3340 hc         1 YQZ       0.041367
     37 H47         16.0330    16.9780    16.3240 hc         1 YQZ       0.041367
     38 H46         14.7120    15.8390    16.0800 hc         1 YQZ       0.041367
     39 H28          8.0150    13.2760    20.4660 ha         1 YQZ       0.112500
     40 H36         11.0800    12.5640    25.4100 ha         1 YQZ       0.114500
     41 H29         10.7220    10.1590    21.5900 ha         1 YQZ       0.112500
     42 H30         10.4850    10.7930    23.9320 ha         1 YQZ       0.115000
     43 H31          7.7700    13.9120    22.8140 ha         1 YQZ       0.115000
     44 H32          6.8670    13.1530    24.8890 ha         1 YQZ       0.114500
     45 H33          6.6760    13.8450    27.2360 ha         1 YQZ       0.112500
     46 H39         11.1150     9.9510    19.0930 hn         1 YQZ       0.494000
     47 H41         12.3530    15.6890    18.9540 hn         1 YQZ       0.534000
     48 C13          9.4860    11.2510    19.4010 c3         1 YQZ       0.277100
@<TRIPOS>BOND
     1     1     2 ar  
     2     1    20 ar  
     3     1    27 1   
     4     2    12 ar  
     5     2    28 1   
     6     3    21 1   
     7     3    22 2   
     8     3    25 1   
     9     4     5 1   
    10     4    23 1   
    11     4    26 2   
    12     5     6 2   
    13     5    31 1   
    14     6     8 1   
    15     6    24 1   
    16     7    23 1   
    17     7    24 1   
    18     7    25 2   
    19     8     9 1   
    20     8    32 1   
    21     8    33 1   
    22     9    10 1   
    23     9    34 1   
    24     9    35 1   
    25    10    36 1   
    26    10    37 1   
    27    10    38 1   
    28    11    13 ar  
    29    11    17 ar  
    30    11    39 1   
    31    12    18 ar  
    32    12    40 1   
    33    13    14 ar  
    34    13    48 1   
    35    14    15 ar  
    36    14    41 1   
    37    15    16 ar  
    38    15    42 1   
    39    16    17 ar  
    40    16    18 1   
    41    17    43 1   
    42    18    19 ar  
    43    19    20 ar  
    44    19    44 1   
    45    20    45 1   
    46    21    46 1   
    47    21    48 1   
    48    22    23 1   
    49    24    47 1   
    50    29    48 1   
    51    30    48 1   
@<TRIPOS>SUBSTRUCTURE
     1 YQZ         1 TEMP              0 ****  ****    0 ROOT
