@<TRIPOS>MOLECULE
YR0
   74    80     1     0     0
SMALL
abcg2


@<TRIPOS>ATOM
      1 O36        -19.1630     1.8650     6.5290 o          1 YR0      -0.575100
      2 C35        -19.3680     2.4990     7.5650 c          1 YR0       0.643900
      3 C34        -19.5980     3.9080     7.6460 cc         1 YR0      -0.503200
      4 C33        -19.8190     4.5530     8.8430 cd         1 YR0       0.403100
      5 N37        -20.0170     5.8700     8.9680 nh         1 YR0      -0.683400
      6 C38        -20.0500     6.6970     7.7690 c6         1 YR0       0.192800
      7 C39        -20.1950     8.1550     8.1630 c6         1 YR0       0.141600
      8 O40        -19.2300     8.5020     9.1250 os         1 YR0      -0.444000
      9 C41        -19.3440     7.7710    10.3320 c6         1 YR0       0.141600
     10 C42        -20.2690     6.5650    10.2190 c6         1 YR0       0.192800
     11 O32        -19.8570     3.8910    10.0120 os         1 YR0      -0.215200
     12 C31        -19.6520     2.5600    10.0160 cc         1 YR0       0.132100
     13 C30        -19.4070     1.8650     8.8690 cd         1 YR0      -0.370600
     14 S29        -19.2200     0.1940     9.1900 ss         1 YR0       0.341000
     15 C28        -19.4760     0.4550    10.8620 cd         1 YR0      -0.240000
     16 C27        -19.7030     1.7630    11.1970 cc         1 YR0      -0.048000
     17 C24        -19.9900     2.2160    12.5640 ca         1 YR0      -0.047000
     18 C23        -19.4470     3.3800    13.1020 ca         1 YR0      -0.065500
     19 C22        -19.6820     3.7580    14.4160 ca         1 YR0      -0.160500
     20 C25        -20.7980     1.4370    13.3950 ca         1 YR0      -0.065500
     21 C26        -21.0390     1.8000    14.7030 ca         1 YR0      -0.160500
     22 C21        -20.4810     2.9650    15.2440 ca         1 YR0       0.330000
     23 N20        -20.7400     3.2090    16.5820 nu         1 YR0      -0.929900
     24 C17        -20.5150     4.3050    17.3680 ca         1 YR0       0.397900
     25 N16        -20.1150     5.4410    16.8280 nb         1 YR0      -0.245000
     26 N18        -20.7610     4.0740    18.6750 nb         1 YR0      -0.258000
     27 C19        -20.5730     5.0640    19.5230 ca         1 YR0       0.207900
     28 C9         -20.1320     6.3100    19.0910 ca         1 YR0      -0.255800
     29 C10        -19.8420     7.5800    19.6580 cc         1 YR0      -0.158200
     30 C6         -19.4730     8.3860    18.6210 cd         1 YR0      -0.136300
     31 C4         -18.8590     9.7360    18.7120 c          1 YR0       0.630300
     32 N1         -19.4850    10.6520    19.4690 n          1 YR0      -0.401800
     33 C2         -18.8120    11.9060    19.7420 c3         1 YR0       0.087300
     34 C3         -20.8780    10.5960    19.8710 c3         1 YR0       0.087300
     35 O5         -17.7830     9.9470    18.1630 o          1 YR0      -0.592100
     36 C8         -19.9210     6.4200    17.7040 ca         1 YR0       0.172500
     37 N7         -19.5140     7.6810    17.4250 na         1 YR0      -0.155400
     38 C11        -19.3740     8.2360    16.0850 c5         1 YR0       0.087300
     39 C12        -20.6740     8.1680    15.2420 c5         1 YR0      -0.085900
     40 C13        -20.2980     7.4290    13.9560 c5         1 YR0      -0.083400
     41 C14        -18.7930     7.6590    13.8170 c5         1 YR0      -0.083400
     42 C15        -18.2800     7.5540    15.2500 c5         1 YR0      -0.085900
     43 H1         -19.5890     4.4800     6.7300 ha         1 YR0       0.209000
     44 H2         -20.8800     6.4070     7.1150 h1         1 YR0       0.064950
     45 H3         -19.1230     6.5650     7.2040 h1         1 YR0       0.064950
     46 H4         -20.0210     8.7740     7.2830 h1         1 YR0       0.056200
     47 H5         -21.2140     8.3670     8.5090 h1         1 YR0       0.056200
     48 H6         -19.7190     8.4200    11.1310 h1         1 YR0       0.056200
     49 H7         -18.3410     7.4390    10.6130 h1         1 YR0       0.056200
     50 H8         -21.3190     6.8670    10.2670 h1         1 YR0       0.064950
     51 H9         -20.0980     5.9130    11.0720 h1         1 YR0       0.064950
     52 H10        -19.4310    -0.3800    11.5440 h4         1 YR0       0.156000
     53 H11        -18.7920     4.0010    12.5040 ha         1 YR0       0.115500
     54 H12        -19.2260     4.6580    14.7930 ha         1 YR0       0.129500
     55 H13        -21.2590     0.5350    13.0120 ha         1 YR0       0.115500
     56 H14        -21.6730     1.1740    15.3190 ha         1 YR0       0.129500
     57 H15        -21.1460     2.4390    17.0910 hn         1 YR0       0.513000
     58 H16        -20.7790     4.8620    20.5690 h4         1 YR0       0.027100
     59 H17        -19.8670     7.8570    20.7010 ha         1 YR0       0.213000
     60 H18        -17.7420    11.7560    19.8600 h1         1 YR0       0.044700
     61 H19        -18.9770    12.6340    18.9450 h1         1 YR0       0.044700
     62 H20        -19.2040    12.3210    20.6690 h1         1 YR0       0.044700
     63 H21        -21.3920     9.7640    19.4020 h1         1 YR0       0.044700
     64 H22        -20.9730    10.4980    20.9530 h1         1 YR0       0.044700
     65 H23        -21.3770    11.5180    19.5670 h1         1 YR0       0.044700
     66 H24        -19.1030     9.2790    16.2170 h1         1 YR0       0.076700
     67 H25        -21.0060     9.1830    15.0180 hc         1 YR0       0.058950
     68 H26        -21.4890     7.6810    15.7770 hc         1 YR0       0.058950
     69 H27        -20.8660     7.7820    13.0940 hc         1 YR0       0.046950
     70 H28        -20.5010     6.3630    14.0660 hc         1 YR0       0.046950
     71 H29        -18.3060     6.9470    13.1480 hc         1 YR0       0.046950
     72 H30        -18.5990     8.6610    13.4230 hc         1 YR0       0.046950
     73 H31        -18.1800     6.5050    15.5350 hc         1 YR0       0.058950
     74 H32        -17.3090     8.0260    15.4000 hc         1 YR0       0.058950
@<TRIPOS>BOND
     1     1     2 2   
     2     2     3 1   
     3     2    13 1   
     4     3     4 2   
     5     3    43 1   
     6     4     5 1   
     7     4    11 1   
     8     5     6 1   
     9     5    10 1   
    10     6     7 1   
    11     6    44 1   
    12     6    45 1   
    13     7     8 1   
    14     7    46 1   
    15     7    47 1   
    16     8     9 1   
    17     9    10 1   
    18     9    48 1   
    19     9    49 1   
    20    10    50 1   
    21    10    51 1   
    22    11    12 1   
    23    12    13 2   
    24    12    16 1   
    25    13    14 1   
    26    14    15 1   
    27    15    16 2   
    28    15    52 1   
    29    16    17 1   
    30    17    18 ar  
    31    17    20 ar  
    32    18    19 ar  
    33    18    53 1   
    34    19    22 ar  
    35    19    54 1   
    36    20    21 ar  
    37    20    55 1   
    38    21    22 ar  
    39    21    56 1   
    40    22    23 1   
    41    23    24 1   
    42    23    57 1   
    43    24    25 ar  
    44    24    26 ar  
    45    25    36 ar  
    46    26    27 ar  
    47    27    28 ar  
    48    27    58 1   
    49    28    29 1   
    50    28    36 ar  
    51    29    30 2   
    52    29    59 1   
    53    30    31 1   
    54    30    37 1   
    55    31    32 1   
    56    31    35 2   
    57    32    33 1   
    58    32    34 1   
    59    33    60 1   
    60    33    61 1   
    61    33    62 1   
    62    34    63 1   
    63    34    64 1   
    64    34    65 1   
    65    36    37 1   
    66    37    38 1   
    67    38    39 1   
    68    38    42 1   
    69    38    66 1   
    70    39    40 1   
    71    39    67 1   
    72    39    68 1   
    73    40    41 1   
    74    40    69 1   
    75    40    70 1   
    76    41    42 1   
    77    41    71 1   
    78    41    72 1   
    79    42    73 1   
    80    42    74 1   
@<TRIPOS>SUBSTRUCTURE
     1 YR0         1 TEMP              0 ****  ****    0 ROOT
