@<TRIPOS>MOLECULE
YR0
   74    80     1     0     0
SMALL
No Charge or Current Charge


@<TRIPOS>ATOM
      1 O36        -20.1630     1.7620     6.4760 o          1 YR0      -0.575100
      2 C35        -20.0990     2.3690     7.5330 c          1 YR0       0.643900
      3 C34        -19.7890     3.7810     7.5980 cc         1 YR0      -0.503200
      4 C33        -19.7380     4.4410     8.7950 cd         1 YR0       0.403100
      5 N37        -19.4700     5.8070     8.8940 nh         1 YR0      -0.683400
      6 C38        -18.4760     6.4820     7.9950 c6         1 YR0       0.192800
      7 C39        -18.7930     7.9950     7.8170 c6         1 YR0       0.141600
      8 O40        -18.9510     8.6410     9.1030 os         1 YR0      -0.444000
      9 C41        -20.0210     8.0630     9.8870 c6         1 YR0       0.141600
     10 C42        -19.7520     6.5540    10.1610 c6         1 YR0       0.192800
     11 O32        -19.9900     3.7630     9.9620 os         1 YR0      -0.215200
     12 C31        -20.2530     2.4170    10.0020 cc         1 YR0       0.132100
     13 C30        -20.3280     1.7450     8.8240 cd         1 YR0      -0.370600
     14 S29        -20.7200     0.0500     9.0890 ss         1 YR0       0.341000
     15 C28        -20.7520     0.3310    10.8470 cd         1 YR0      -0.240000
     16 C27        -20.5100     1.6520    11.1750 cc         1 YR0      -0.048000
     17 C24        -20.4270     2.0440    12.6000 ca         1 YR0      -0.047000
     18 C23        -19.7680     3.2290    12.9990 ca         1 YR0      -0.065500
     19 C22        -19.6710     3.5830    14.3570 ca         1 YR0      -0.160500
     20 C25        -20.9900     1.2330    13.6130 ca         1 YR0      -0.065500
     21 C26        -20.8960     1.5950    14.9680 ca         1 YR0      -0.160500
     22 C21        -20.2450     2.7740    15.3530 ca         1 YR0       0.330000
     23 N20        -20.1640     3.0680    16.7190 nu         1 YR0      -0.929900
     24 C17        -19.9970     4.2260    17.4670 ca         1 YR0       0.397900
     25 N16        -19.9690     5.4150    16.8290 nb         1 YR0      -0.245000
     26 N18        -19.9000     4.0220    18.7980 nb         1 YR0      -0.258000
     27 C19        -19.7530     5.1220    19.5640 ca         1 YR0       0.207900
     28 C9         -19.7180     6.3850    18.9590 ca         1 YR0      -0.255800
     29 C10        -19.5490     7.6800    19.5250 cc         1 YR0      -0.158200
     30 C6         -19.5690     8.5960    18.4730 cd         1 YR0      -0.136300
     31 C4         -19.3080    10.0790    18.6230 c          1 YR0       0.630300
     32 N1         -19.5130    10.6800    19.8950 n          1 YR0      -0.401800
     33 C2         -19.0160    12.0540    20.1330 c3         1 YR0       0.087300
     34 C3         -20.5340    10.1940    20.8520 c3         1 YR0       0.087300
     35 O5         -18.9160    10.7670    17.6880 o          1 YR0      -0.592100
     36 C8         -19.8250     6.5110    17.6020 ca         1 YR0       0.172500
     37 N7         -19.7460     7.8610    17.2520 na         1 YR0      -0.155400
     38 C11        -19.8450     8.4090    15.8860 c5         1 YR0       0.087300
     39 C12        -21.0980     7.9530    15.0560 c5         1 YR0      -0.085900
     40 C13        -20.5430     7.5400    13.6600 c5         1 YR0      -0.083400
     41 C14        -19.2250     8.3420    13.5690 c5         1 YR0      -0.083400
     42 C15        -18.6420     8.0490    14.9680 c5         1 YR0      -0.085900
     43 H1         -19.6370     4.2680     6.6470 ha         1 YR0       0.209000
     44 H2         -18.4450     6.0190     7.0000 h1         1 YR0       0.064950
     45 H3         -17.4670     6.3820     8.4210 h1         1 YR0       0.064950
     46 H4         -17.9780     8.4840     7.2660 h1         1 YR0       0.056200
     47 H5         -19.7180     8.1160     7.2350 h1         1 YR0       0.056200
     48 H6         -20.9700     8.1780     9.3430 h1         1 YR0       0.056200
     49 H7         -20.1070     8.6100    10.8340 h1         1 YR0       0.056200
     50 H8         -20.6290     6.1340    10.6740 h1         1 YR0       0.064950
     51 H9         -18.8990     6.4590    10.8490 h1         1 YR0       0.064950
     52 H10        -20.9230    -0.5160    11.4960 h4         1 YR0       0.156000
     53 H11        -19.2880     3.8720    12.2690 ha         1 YR0       0.115500
     54 H12        -19.1210     4.4780    14.6230 ha         1 YR0       0.129500
     55 H13        -21.5270     0.3220    13.3680 ha         1 YR0       0.115500
     56 H14        -21.3440     0.9520    15.7200 ha         1 YR0       0.129500
     57 H15        -20.3500     2.2620    17.3150 hn         1 YR0       0.513000
     58 H16        -19.6640     4.9850    20.6410 h4         1 YR0       0.027100
     59 H17        -19.3280     7.8940    20.5680 ha         1 YR0       0.213000
     60 H18        -17.9800    12.1440    19.7800 h1         1 YR0       0.044700
     61 H19        -19.6450    12.7740    19.5950 h1         1 YR0       0.044700
     62 H20        -19.0400    12.2850    21.2060 h1         1 YR0       0.044700
     63 H21        -21.2460     9.5220    20.3570 h1         1 YR0       0.044700
     64 H22        -20.0480     9.6760    21.6880 h1         1 YR0       0.044700
     65 H23        -21.1000    11.0440    21.2540 h1         1 YR0       0.044700
     66 H24        -19.9040     9.5000    15.9440 h1         1 YR0       0.076700
     67 H25        -21.8120     8.7800    14.9670 hc         1 YR0       0.058950
     68 H26        -21.6480     7.1280    15.5220 hc         1 YR0       0.058950
     69 H27        -21.2410     7.7810    12.8500 hc         1 YR0       0.046950
     70 H28        -20.3560     6.4610    13.6110 hc         1 YR0       0.046950
     71 H29        -18.5700     7.9900    12.7640 hc         1 YR0       0.046950
     72 H30        -19.4020     9.4140    13.4110 hc         1 YR0       0.046950
     73 H31        -18.3450     6.9980    15.0670 hc         1 YR0       0.058950
     74 H32        -17.7590     8.6580    15.1920 hc         1 YR0       0.058950
@<TRIPOS>BOND
     1     1     2 2   
     2     2     3 1   
     3     2    13 1   
     4     3     4 2   
     5     3    43 1   
     6     4     5 1   
     7     4    11 1   
     8     5     6 1   
     9     5    10 1   
    10     6     7 1   
    11     6    44 1   
    12     6    45 1   
    13     7     8 1   
    14     7    46 1   
    15     7    47 1   
    16     8     9 1   
    17     9    10 1   
    18     9    48 1   
    19     9    49 1   
    20    10    50 1   
    21    10    51 1   
    22    11    12 1   
    23    12    13 2   
    24    12    16 1   
    25    13    14 1   
    26    14    15 1   
    27    15    16 2   
    28    15    52 1   
    29    16    17 1   
    30    17    18 ar  
    31    17    20 ar  
    32    18    19 ar  
    33    18    53 1   
    34    19    22 ar  
    35    19    54 1   
    36    20    21 ar  
    37    20    55 1   
    38    21    22 ar  
    39    21    56 1   
    40    22    23 1   
    41    23    24 1   
    42    23    57 1   
    43    24    25 ar  
    44    24    26 ar  
    45    25    36 ar  
    46    26    27 ar  
    47    27    28 ar  
    48    27    58 1   
    49    28    29 1   
    50    28    36 ar  
    51    29    30 2   
    52    29    59 1   
    53    30    31 1   
    54    30    37 1   
    55    31    32 1   
    56    31    35 2   
    57    32    33 1   
    58    32    34 1   
    59    33    60 1   
    60    33    61 1   
    61    33    62 1   
    62    34    63 1   
    63    34    64 1   
    64    34    65 1   
    65    36    37 1   
    66    37    38 1   
    67    38    39 1   
    68    38    42 1   
    69    38    66 1   
    70    39    40 1   
    71    39    67 1   
    72    39    68 1   
    73    40    41 1   
    74    40    69 1   
    75    40    70 1   
    76    41    42 1   
    77    41    71 1   
    78    41    72 1   
    79    42    73 1   
    80    42    74 1   
@<TRIPOS>SUBSTRUCTURE
     1 YR0         1 TEMP              0 ****  ****    0 ROOT
