@<TRIPOS>MOLECULE
YR1
   49    52     1     0     0
SMALL
No Charge or Current Charge


@<TRIPOS>ATOM
      1 OAA          6.6170     0.4180     0.3820 o          1 YR1      -0.688000
      2 OAB         -3.5470    -2.3490    -2.0720 o          1 YR1      -0.516100
      3 OAD         -2.4590     4.8940     1.0740 o          1 YR1      -0.409000
      4 OAE          5.6630     0.0730    -1.5150 o          1 YR1      -0.688000
      5 OAF         -0.8540    -3.0280    -3.1690 oh         1 YR1      -0.475100
      6 OAG          5.3440     0.1470     2.5860 oh         1 YR1      -0.622100
      7 OAH         -1.9170     5.0440    -1.0340 o          1 YR1      -0.409000
      8 CAI         -5.0130    -0.3430     2.3260 ca         1 YR1      -0.099000
      9 CAJ         -5.2140     0.2200     1.0560 ca         1 YR1      -0.120000
     10 CAK         -4.1440    -1.4370     2.4790 ca         1 YR1      -0.120000
     11 CAL         -4.5430    -0.3050    -0.0620 ca         1 YR1      -0.075500
     12 CAM         -3.4700    -1.9630     1.3630 ca         1 YR1      -0.075500
     13 CAN          3.0800    -0.5520     2.4790 ca         1 YR1      -0.211000
     14 CAO         -1.3960     0.8220     1.1830 ca         1 YR1      -0.093500
     15 CAP         -0.7950     0.9870    -1.1590 ca         1 YR1      -0.093500
     16 CAQ          1.9510    -0.9230     1.7360 ca         1 YR1      -0.077000
     17 CAR         -1.7600     2.1780     1.1910 ca         1 YR1      -0.047000
     18 CAS         -1.1540     2.3450    -1.1600 ca         1 YR1      -0.047000
     19 CAT          3.2140    -0.6200    -0.3130 ca         1 YR1      -0.011000
     20 CAU          5.6450     0.1080    -0.2950 c          1 YR1       0.726600
     21 CAV         -0.5450    -2.3890    -2.0020 ce         1 YR1       0.110900
     22 CAW         -2.9210    -1.9280    -1.1090 c          1 YR1       0.613900
     23 CAX          0.8770    -2.1330    -1.6310 c          1 YR1       0.517200
     24 CAY         -1.4290    -1.9180    -1.0880 cf         1 YR1      -0.309400
     25 CAZ          4.2710    -0.2050     1.8320 ca         1 YR1       0.228100
     26 CBA         -3.6590    -1.3930     0.0870 ca         1 YR1      -0.151600
     27 CBB         -0.9160     0.2060     0.0110 ca         1 YR1      -0.036300
     28 CBC          4.3610    -0.2410     0.4260 ca         1 YR1      -0.265600
     29 CBD          1.9860    -0.9080     0.3270 ca         1 YR1      -0.172000
     30 CBE         -1.6440     2.9560     0.0170 ca         1 YR1      -0.175200
     31 CBF         -0.5560    -1.2850     0.0340 c5         1 YR1       0.211200
     32 NBG          0.8550    -1.4310    -0.4130 n          1 YR1      -0.189400
     33 NBH         -2.0340     4.4030     0.0190 no         1 YR1       0.697200
     34 HOAF         0.0030    -3.2430    -3.6020 ho         1 YR1       0.495000
     35 HOAG         6.0610     0.3280     1.9120 ho         1 YR1       0.553000
     36 HAI         -5.5320     0.0640     3.1910 ha         1 YR1       0.110000
     37 HAJ         -5.8870     1.0660     0.9370 ha         1 YR1       0.114000
     38 HAK         -3.9930    -1.8780     3.4620 ha         1 YR1       0.114000
     39 HAL         -4.6970     0.1430    -1.0430 ha         1 YR1       0.122500
     40 HAM         -2.8050    -2.8150     1.4910 ha         1 YR1       0.122500
     41 HAN          3.0330    -0.5460     3.5640 ha         1 YR1       0.109000
     42 HAO         -1.4990     0.2420     2.0980 ha         1 YR1       0.131000
     43 HAP         -0.4240     0.5410    -2.0790 ha         1 YR1       0.131000
     44 HAQ          1.0500    -1.2170     2.2690 ha         1 YR1       0.086000
     45 HAR         -2.1340     2.6150     2.1150 ha         1 YR1       0.148500
     46 HAS         -1.0490     2.9150    -2.0820 ha         1 YR1       0.148500
     47 HAT          3.2720    -0.6510    -1.3970 ha         1 YR1       0.133000
     48 HBF         -0.7280    -1.7520     1.0120 h1         1 YR1       0.076700
     49 OAC          1.8620    -2.4810    -2.2740 o          1 YR1      -0.524000
@<TRIPOS>BOND
     1     1    20 1   
     2     2    22 2   
     3     3    33 1   
     4     4    20 1   
     5     5    21 1   
     6     5    34 1   
     7     6    25 1   
     8     6    35 1   
     9     7    33 1   
    10     8     9 ar  
    11     8    10 ar  
    12     8    36 1   
    13     9    11 ar  
    14     9    37 1   
    15    10    12 ar  
    16    10    38 1   
    17    11    26 ar  
    18    11    39 1   
    19    12    26 ar  
    20    12    40 1   
    21    13    16 ar  
    22    13    25 ar  
    23    13    41 1   
    24    14    17 ar  
    25    14    27 ar  
    26    14    42 1   
    27    15    18 ar  
    28    15    27 ar  
    29    15    43 1   
    30    16    29 ar  
    31    16    44 1   
    32    17    30 ar  
    33    17    45 1   
    34    18    30 ar  
    35    18    46 1   
    36    19    28 ar  
    37    19    29 ar  
    38    19    47 1   
    39    20    28 1   
    40    21    23 1   
    41    21    24 2   
    42    22    24 1   
    43    22    26 1   
    44    23    32 1   
    45    23    49 2   
    46    24    31 1   
    47    25    28 ar  
    48    27    31 1   
    49    29    32 1   
    50    30    33 1   
    51    31    32 1   
    52    31    48 1   
@<TRIPOS>SUBSTRUCTURE
     1 YR1         1 TEMP              0 ****  ****    0 ROOT
