@<TRIPOS>MOLECULE
YR1
   49    52     1     0     0
SMALL
bcc


@<TRIPOS>ATOM
      1 OAA          5.9710     1.2840     0.4430 o          1 YR1      -0.793300
      2 OAB         -3.4810    -2.1640    -2.1500 o          1 YR1      -0.516100
      3 OAD         -1.9050     4.8690     1.0490 o          1 YR1      -0.219000
      4 OAE          4.8670     1.1750    -1.4860 o          1 YR1      -0.793300
      5 OAF         -0.9090    -3.3860    -2.9080 oh         1 YR1      -0.436100
      6 OAG          5.1330     0.2080     2.4670 oh         1 YR1      -0.583100
      7 OAH         -1.3180     4.9660    -0.9990 o          1 YR1      -0.219000
      8 CAI         -5.0050    -0.2830     2.2230 ca         1 YR1      -0.117000
      9 CAJ         -5.1970     0.2500     0.9540 ca         1 YR1      -0.138000
     10 CAK         -4.1350    -1.3500     2.4050 ca         1 YR1      -0.138000
     11 CAL         -4.5220    -0.2820    -0.1330 ca         1 YR1      -0.093500
     12 CAM         -3.4360    -1.8650     1.3230 ca         1 YR1      -0.093500
     13 CAN          3.1110    -1.0040     2.4050 ca         1 YR1      -0.229000
     14 CAO         -1.2390     0.8400     1.1830 ca         1 YR1      -0.111500
     15 CAP         -0.6070     0.9480    -1.1310 ca         1 YR1      -0.111500
     16 CAQ          2.0270    -1.4730     1.6900 ca         1 YR1      -0.095000
     17 CAR         -1.4730     2.2050     1.1950 ca         1 YR1      -0.065000
     18 CAS         -0.8280     2.3120    -1.1380 ca         1 YR1      -0.065000
     19 CAT          2.8490    -0.3970    -0.2920 ca         1 YR1      -0.029000
     20 CAU          5.0030     0.9080    -0.2910 c          1 YR1       0.937200
     21 CAV         -0.6180    -2.6480    -1.8640 ce         1 YR1       0.110900
     22 CAW         -2.8920    -1.8760    -1.1250 c          1 YR1       0.613900
     23 CAX          0.8000    -2.4430    -1.4520 c          1 YR1       0.659700
     24 CAY         -1.4390    -2.0000    -1.0170 cf         1 YR1      -0.309400
     25 CAZ          4.0920    -0.2320     1.7730 ca         1 YR1       0.228100
     26 CBA         -3.6240    -1.3300     0.0510 ca         1 YR1      -0.151600
     27 CBB         -0.8170     0.2030     0.0250 ca         1 YR1      -0.036300
     28 CBC          3.9580     0.0700     0.4020 ca         1 YR1      -0.265600
     29 CBD          1.8880    -1.1690     0.3380 ca         1 YR1      -0.079400
     30 CBE         -1.2650     2.9240     0.0300 ca         1 YR1      -0.175200
     31 CBF         -0.5980    -1.2920     0.0170 c5         1 YR1       0.211200
     32 NBG          0.7590    -1.6340    -0.3750 n          1 YR1      -0.349000
     33 NBH         -1.5130     4.3580     0.0270 no         1 YR1       0.317200
     34 HOAF        -0.0940    -3.7400    -3.2950 ho         1 YR1       0.456000
     35 HOAG         5.6760     0.7360     1.7700 ho         1 YR1       0.514000
     36 HAI         -5.5390     0.1300     3.0690 ha         1 YR1       0.128000
     37 HAJ         -5.8760     1.0810     0.8140 ha         1 YR1       0.132000
     38 HAK         -3.9970    -1.7780     3.3880 ha         1 YR1       0.132000
     39 HAL         -4.6730     0.1350    -1.1210 ha         1 YR1       0.140500
     40 HAM         -2.7620    -2.7000     1.4690 ha         1 YR1       0.140500
     41 HAN          3.2120    -1.2400     3.4560 ha         1 YR1       0.127000
     42 HAO         -1.4020     0.2680     2.0870 ha         1 YR1       0.149000
     43 HAP         -0.2760     0.4680    -2.0430 ha         1 YR1       0.149000
     44 HAQ          1.2830    -2.0810     2.1910 ha         1 YR1       0.104000
     45 HAR         -1.8100     2.6840     2.1020 ha         1 YR1       0.166500
     46 HAS         -0.6640     2.8800    -2.0420 ha         1 YR1       0.166500
     47 HAT          2.7400    -0.1390    -1.3370 ha         1 YR1       0.151000
     48 HBF         -0.7930    -1.6850     1.0200 h1         1 YR1       0.076700
     49 OAC          1.7650    -2.9290    -2.0070 o          1 YR1      -0.599500
@<TRIPOS>BOND
     1     1    20 1   
     2     2    22 2   
     3     3    33 1   
     4     4    20 1   
     5     5    21 1   
     6     5    34 1   
     7     6    25 1   
     8     6    35 1   
     9     7    33 1   
    10     8     9 ar  
    11     8    10 ar  
    12     8    36 1   
    13     9    11 ar  
    14     9    37 1   
    15    10    12 ar  
    16    10    38 1   
    17    11    26 ar  
    18    11    39 1   
    19    12    26 ar  
    20    12    40 1   
    21    13    16 ar  
    22    13    25 ar  
    23    13    41 1   
    24    14    17 ar  
    25    14    27 ar  
    26    14    42 1   
    27    15    18 ar  
    28    15    27 ar  
    29    15    43 1   
    30    16    29 ar  
    31    16    44 1   
    32    17    30 ar  
    33    17    45 1   
    34    18    30 ar  
    35    18    46 1   
    36    19    28 ar  
    37    19    29 ar  
    38    19    47 1   
    39    20    28 1   
    40    21    23 1   
    41    21    24 2   
    42    22    24 1   
    43    22    26 1   
    44    23    32 1   
    45    23    49 2   
    46    24    31 1   
    47    25    28 ar  
    48    27    31 1   
    49    29    32 1   
    50    30    33 1   
    51    31    32 1   
    52    31    48 1   
@<TRIPOS>SUBSTRUCTURE
     1 YR1         1 TEMP              0 ****  ****    0 ROOT
