@<TRIPOS>MOLECULE
YR2
   60    66     1     0     0
SMALL
abcg2


@<TRIPOS>ATOM
      1 C02         28.2340    43.4550     4.3510 c5         1 YR2       0.202800
      2 C03         29.5160    43.1820     3.6070 ca         1 YR2      -0.231300
      3 C04         29.1950    42.8100     2.3100 ca         1 YR2       0.135100
      4 C06         27.2100    42.7730     3.3990 c5         1 YR2       0.176000
      5 C07         25.8980    43.5170     3.2150 c6         1 YR2      -0.103900
      6 C08         24.9190    42.7280     2.3480 c6         1 YR2       0.212300
      7 C10         23.6880    41.1060     3.7490 ca         1 YR2       0.612900
      8 C11         22.4950    41.9220     3.8000 ca         1 YR2       0.211900
      9 C14         22.7350    39.7550     5.2530 ca         1 YR2       0.402500
     10 C15         21.5700    40.5260     5.2880 ca         1 YR2       0.079700
     11 C16         20.7230    39.8640     6.2240 cc         1 YR2       0.511200
     12 C18         19.1660    40.1670     8.0950 c6         1 YR2       0.241800
     13 C19         18.4180    41.4160     8.5270 c6         1 YR2      -0.096400
     14 C20         17.1250    41.5500     7.7380 c6         1 YR2      -0.121700
     15 C21         17.3190    41.2860     6.2710 ca         1 YR2       0.306300
     16 C22         18.4700    40.6280     5.7950 ca         1 YR2       0.291000
     17 C23         18.5280    40.3430     4.4290 ca         1 YR2      -0.117000
     18 C24         17.5020    40.7560     3.6010 ca         1 YR2      -0.134000
     19 C25         16.4260    41.4270     4.1590 ca         1 YR2       0.302900
     20 C29         25.9390    40.6360     2.9430 c6         1 YR2       0.212300
     21 C30         26.9520    41.3320     3.8440 c6         1 YR2      -0.103900
     22 C31         30.1660    42.5700     1.3520 ca         1 YR2      -0.141000
     23 C32         31.4960    42.7160     1.7400 ca         1 YR2      -0.070000
     24 C33         31.8360    43.0850     3.0370 ca         1 YR2      -0.150000
     25 C34         30.8390    43.3280     3.9800 ca         1 YR2      -0.051000
     26 N01         27.9620    44.8600     4.6000 n8         1 YR2      -0.990200
     27 N09         24.7010    41.3980     2.8950 nh         1 YR2      -0.756300
     28 N12         21.4660    41.6350     4.5460 nb         1 YR2      -0.529000
     29 N13         23.7970    40.0200     4.5050 nb         1 YR2      -0.762000
     30 N17         19.4750    40.2510     6.6750 nh         1 YR2      -0.756400
     31 N26         16.3430    41.6700     5.4590 nb         1 YR2      -0.658000
     32 N27         21.3310    38.8080     6.7070 nd         1 YR2      -0.561100
     33 N28         22.5500    38.7530     6.1280 na         1 YR2      -0.163100
     34 O05         27.8670    42.7170     2.1040 os         1 YR2      -0.339100
     35 H021        28.2090    42.9480     5.3180 h1         1 YR2       0.079700
     36 H072        26.0720    44.4980     2.7690 hc         1 YR2       0.068200
     37 H071        25.4530    43.6920     4.1970 hc         1 YR2       0.068200
     38 H081        25.3080    42.6130     1.3350 h1         1 YR2       0.069700
     39 H082        23.9870    43.2760     2.2500 h1         1 YR2       0.069700
     40 H111        22.4100    42.8130     3.1940 h4         1 YR2       0.032100
     41 H181        20.1020    40.0720     8.6410 h1         1 YR2       0.053200
     42 H191        19.0590    42.2860     8.3670 hc         1 YR2       0.055200
     43 H192        18.2070    41.3640     9.5950 hc         1 YR2       0.055200
     44 H201        16.6880    42.5410     7.8700 hc         1 YR2       0.061700
     45 H202        16.3880    40.8390     8.1230 hc         1 YR2       0.061700
     46 H231        19.3620    39.7950     4.0120 ha         1 YR2       0.125000
     47 H241        17.5320    40.5470     2.5400 ha         1 YR2       0.119000
     48 H251        15.6050    41.7750     3.5420 h4         1 YR2       0.017100
     49 H291        25.7420    39.6270     3.2920 h1         1 YR2       0.069700
     50 H292        26.3230    40.5590     1.9230 h1         1 YR2       0.069700
     51 H301        26.5720    41.3450     4.8690 hc         1 YR2       0.068200
     52 H302        27.8890    40.7680     3.8620 hc         1 YR2       0.068200
     53 H311        29.9060    42.2790     0.3430 ha         1 YR2       0.131000
     54 H321        32.2780    42.5320     1.0140 ha         1 YR2       0.116000
     55 H331        32.8780    43.1850     3.3120 ha         1 YR2       0.117000
     56 H341        31.0990    43.6240     4.9890 ha         1 YR2       0.113000
     57 H012        28.5900    45.1960     5.3200 hn         1 YR2       0.404500
     58 H011        28.1700    45.4100     3.7740 hn         1 YR2       0.404500
     59 H281        23.1940    38.0220     6.3830 hn         1 YR2       0.387000
     60 H182        18.5700    39.2730     8.3110 h1         1 YR2       0.053200
@<TRIPOS>BOND
     1     1     2 1   
     2     1     4 1   
     3     1    26 1   
     4     1    35 1   
     5     2     3 ar  
     6     2    25 ar  
     7     3    22 ar  
     8     3    34 1   
     9     4     5 1   
    10     4    21 1   
    11     4    34 1   
    12     5     6 1   
    13     5    36 1   
    14     5    37 1   
    15     6    27 1   
    16     6    38 1   
    17     6    39 1   
    18     7     8 ar  
    19     7    27 1   
    20     7    29 ar  
    21     8    28 ar  
    22     8    40 1   
    23     9    10 ar  
    24     9    29 ar  
    25     9    33 1   
    26    10    11 1   
    27    10    28 ar  
    28    11    30 1   
    29    11    32 2   
    30    12    13 1   
    31    12    30 1   
    32    12    41 1   
    33    12    60 1   
    34    13    14 1   
    35    13    42 1   
    36    13    43 1   
    37    14    15 1   
    38    14    44 1   
    39    14    45 1   
    40    15    16 ar  
    41    15    31 ar  
    42    16    17 ar  
    43    16    30 1   
    44    17    18 ar  
    45    17    46 1   
    46    18    19 ar  
    47    18    47 1   
    48    19    31 ar  
    49    19    48 1   
    50    20    21 1   
    51    20    27 1   
    52    20    49 1   
    53    20    50 1   
    54    21    51 1   
    55    21    52 1   
    56    22    23 ar  
    57    22    53 1   
    58    23    24 ar  
    59    23    54 1   
    60    24    25 ar  
    61    24    55 1   
    62    25    56 1   
    63    26    57 1   
    64    26    58 1   
    65    32    33 1   
    66    33    59 1   
@<TRIPOS>SUBSTRUCTURE
     1 YR2         1 TEMP              0 ****  ****    0 ROOT
