@<TRIPOS>MOLECULE
YR2
   60    66     1     0     0
SMALL
No Charge or Current Charge


@<TRIPOS>ATOM
      1 C02         29.1820    43.6520     4.1130 c5         1 YR2       0.202800
      2 C03         29.8190    43.1190     2.8740 ca         1 YR2      -0.231300
      3 C04         28.8620    42.7590     1.9520 ca         1 YR2       0.135100
      4 C06         27.7040    43.0970     3.8420 c5         1 YR2       0.176000
      5 C07         26.5590    44.0060     4.3710 c6         1 YR2      -0.103900
      6 C08         25.1570    43.4110     4.1100 c6         1 YR2       0.212300
      7 C10         23.7710    41.5450     5.0990 ca         1 YR2       0.612900
      8 C11         22.5110    42.1610     4.7610 ca         1 YR2       0.211900
      9 C14         22.6400    39.9420     6.2710 ca         1 YR2       0.402500
     10 C15         21.4370    40.5330     5.9290 ca         1 YR2       0.079700
     11 C16         20.4300    39.7050     6.5850 cc         1 YR2       0.511200
     12 C18         18.3230    39.9050     7.7940 c6         1 YR2       0.241800
     13 C19         17.4070    41.1390     7.9580 c6         1 YR2      -0.096400
     14 C20         16.3850    41.2380     6.8020 c6         1 YR2      -0.121700
     15 C21         17.0330    40.9670     5.4430 ca         1 YR2       0.306300
     16 C22         18.3230    40.3530     5.3540 ca         1 YR2       0.291000
     17 C23         18.8070    40.0850     4.0560 ca         1 YR2      -0.117000
     18 C24         18.0300    40.4550     2.9420 ca         1 YR2      -0.134000
     19 C25         16.7830    41.0710     3.1410 ca         1 YR2       0.302900
     20 C29         26.1030    41.1100     4.2250 c6         1 YR2       0.212300
     21 C30         27.5060    41.6970     4.4940 c6         1 YR2      -0.103900
     22 C31         29.2070    42.2650     0.6880 ca         1 YR2      -0.141000
     23 C32         30.5730    42.1200     0.3730 ca         1 YR2      -0.070000
     24 C33         31.5590    42.4740     1.3210 ca         1 YR2      -0.150000
     25 C34         31.1870    42.9810     2.5840 ca         1 YR2      -0.051000
     26 N01         29.3660    45.1120     4.0490 n8         1 YR2      -0.990200
     27 N09         25.0360    42.0440     4.6900 nh         1 YR2      -0.756300
     28 N12         21.3110    41.6630     5.1770 nb         1 YR2      -0.529000
     29 N13         23.8380    40.4250     5.8680 nb         1 YR2      -0.762000
     30 N17         19.0780    39.9810     6.5110 nh         1 YR2      -0.756400
     31 N26         16.2780    41.3210     4.3700 nb         1 YR2      -0.658000
     32 N27         20.9440    38.6970     7.2940 nd         1 YR2      -0.561100
     33 N28         22.3220    38.8590     7.0710 na         1 YR2      -0.163100
     34 O05         27.5780    42.9400     2.3850 os         1 YR2      -0.339100
     35 H021        29.6340    43.2540     5.0340 h1         1 YR2       0.079700
     36 H072        26.6170    44.9950     3.8990 hc         1 YR2       0.068200
     37 H071        26.6900    44.1700     5.4490 hc         1 YR2       0.068200
     38 H081        24.9650    43.3830     3.0260 h1         1 YR2       0.069700
     39 H082        24.4180    44.0920     4.5570 h1         1 YR2       0.069700
     40 H111        22.4650    43.0560     4.1430 h4         1 YR2       0.032100
     41 H181        19.0070    39.8700     8.6550 h1         1 YR2       0.053200
     42 H191        18.0280    42.0460     7.9820 hc         1 YR2       0.055200
     43 H192        16.8820    41.0930     8.9220 hc         1 YR2       0.055200
     44 H201        15.9110    42.2290     6.8090 hc         1 YR2       0.061700
     45 H202        15.5830    40.5050     6.9610 hc         1 YR2       0.061700
     46 H231        19.7640    39.5930     3.9080 ha         1 YR2       0.125000
     47 H241        18.3850    40.2650     1.9330 ha         1 YR2       0.119000
     48 H251        16.1650    41.3630     2.2930 h4         1 YR2       0.017100
     49 H291        26.0440    40.1360     4.7320 h1         1 YR2       0.069700
     50 H292        25.9890    40.9140     3.1480 h1         1 YR2       0.069700
     51 H301        27.6600    41.7720     5.5790 hc         1 YR2       0.068200
     52 H302        28.2670    40.9970     4.1260 hc         1 YR2       0.068200
     53 H311        28.4360    41.9940    -0.0290 ha         1 YR2       0.131000
     54 H321        30.8690    41.7330    -0.6000 ha         1 YR2       0.116000
     55 H331        32.6120    42.3600     1.0750 ha         1 YR2       0.117000
     56 H341        31.9440    43.2620     3.3130 ha         1 YR2       0.113000
     57 H012        30.3670    45.3030     3.9390 hn         1 YR2       0.404500
     58 H011        28.9710    45.4340     3.1600 hn         1 YR2       0.404500
     59 H281        23.0100    38.2330     7.4810 hn         1 YR2       0.387000
     60 H182        17.7180    38.9860     7.8240 h1         1 YR2       0.053200
@<TRIPOS>BOND
     1     1     2 1   
     2     1     4 1   
     3     1    26 1   
     4     1    35 1   
     5     2     3 ar  
     6     2    25 ar  
     7     3    22 ar  
     8     3    34 1   
     9     4     5 1   
    10     4    21 1   
    11     4    34 1   
    12     5     6 1   
    13     5    36 1   
    14     5    37 1   
    15     6    27 1   
    16     6    38 1   
    17     6    39 1   
    18     7     8 ar  
    19     7    27 1   
    20     7    29 ar  
    21     8    28 ar  
    22     8    40 1   
    23     9    10 ar  
    24     9    29 ar  
    25     9    33 1   
    26    10    11 1   
    27    10    28 ar  
    28    11    30 1   
    29    11    32 2   
    30    12    13 1   
    31    12    30 1   
    32    12    41 1   
    33    12    60 1   
    34    13    14 1   
    35    13    42 1   
    36    13    43 1   
    37    14    15 1   
    38    14    44 1   
    39    14    45 1   
    40    15    16 ar  
    41    15    31 ar  
    42    16    17 ar  
    43    16    30 1   
    44    17    18 ar  
    45    17    46 1   
    46    18    19 ar  
    47    18    47 1   
    48    19    31 ar  
    49    19    48 1   
    50    20    21 1   
    51    20    27 1   
    52    20    49 1   
    53    20    50 1   
    54    21    51 1   
    55    21    52 1   
    56    22    23 ar  
    57    22    53 1   
    58    23    24 ar  
    59    23    54 1   
    60    24    25 ar  
    61    24    55 1   
    62    25    56 1   
    63    26    57 1   
    64    26    58 1   
    65    32    33 1   
    66    33    59 1   
@<TRIPOS>SUBSTRUCTURE
     1 YR2         1 TEMP              0 ****  ****    0 ROOT
