@<TRIPOS>MOLECULE
YR3
   75    76     1     0     0
SMALL
No Charge or Current Charge


@<TRIPOS>ATOM
      1 C1          -3.0370    -0.3470     0.5740 ca         1 YR3      -0.200000
      2 C2          -4.2150     0.2000     0.0270 ca         1 YR3       0.135100
      3 C3          -4.2260     1.5500    -0.3770 ca         1 YR3      -0.104300
      4 C4          -3.0620     2.3330    -0.2420 ca         1 YR3      -0.078000
      5 C5          -1.8620     1.7900     0.2780 ca         1 YR3      -0.098300
      6 C6          -1.8830     0.4410     0.7040 ca         1 YR3      -0.072000
      7 C7          -0.5720     2.6490     0.4590 c3         1 YR3       0.067600
      8 C8           0.7160     1.8030     0.2110 ca         1 YR3      -0.098300
      9 C9          -0.4970     3.8670    -0.5310 c3         1 YR3      -0.066400
     10 C10         -0.6430     3.2570     1.9050 c3         1 YR3      -0.066400
     11 C11         -0.6440     2.2530     3.0850 c3         1 YR3      -0.089600
     12 C12         -0.5050     3.5400    -2.0440 c3         1 YR3      -0.089600
     13 C13          0.7360     0.8200    -0.8070 ca         1 YR3      -0.074000
     14 C14          1.8870     0.0550    -1.0750 ca         1 YR3      -0.106300
     15 C15          3.0610     0.2760    -0.3280 ca         1 YR3       0.138100
     16 O33          5.8420    -2.6470    -0.4990 oh         1 YR3      -0.641000
     17 C22          6.4470    -1.3410    -0.4870 c3         1 YR3       0.173300
     18 C23          7.8460    -1.3820     0.2360 c3         1 YR3      -0.076000
     19 C26          8.7870    -2.3770    -0.5020 c3         1 YR3      -0.086100
     20 C25          8.5130     0.0220     0.1920 c3         1 YR3      -0.086100
     21 C24          7.7200    -1.8270     1.7230 c3         1 YR3      -0.086100
     22 C21          5.4240    -0.3240     0.0960 c3         1 YR3       0.129600
     23 O20          4.1780    -0.4880    -0.6100 os         1 YR3      -0.336100
     24 C18          1.8550    -1.0010    -2.1750 c3         1 YR3      -0.034800
     25 C16          3.0680     1.2710     0.6700 ca         1 YR3      -0.203000
     26 C17          1.9150     2.0290     0.9290 ca         1 YR3      -0.077000
     27 C19         -5.4940     2.1720    -0.9550 c3         1 YR3      -0.034800
     28 O27         -5.3710    -0.5440    -0.1160 os         1 YR3      -0.330100
     29 C28         -5.4510    -1.9310     0.2700 c3         1 YR3       0.128600
     30 C29         -6.8820    -2.4520    -0.0220 c3         1 YR3       0.165300
     31 O32         -7.1440    -2.4680    -1.4400 oh         1 YR3      -0.624000
     32 C30         -7.1000    -3.8830     0.5350 c3         1 YR3       0.130600
     33 O31         -8.4160    -4.3540     0.1940 oh         1 YR3      -0.641000
     34 H1          -2.9970    -1.3790     0.9100 ha         1 YR3       0.112000
     35 H4          -3.1110     3.3740    -0.5440 ha         1 YR3       0.114000
     36 H6          -0.9970    -0.0070     1.1470 ha         1 YR3       0.118000
     37 H9          -1.3090     4.5730    -0.3210 hc         1 YR3       0.037700
     38 H9A          0.4230     4.4270    -0.3240 hc         1 YR3       0.037700
     39 H10          0.1750     3.9720     2.0540 hc         1 YR3       0.037700
     40 H10A        -1.5590     3.8550     1.9860 hc         1 YR3       0.037700
     41 H11         -1.5750     1.6750     3.1100 hc         1 YR3       0.035533
     42 H11A         0.1980     1.5550     3.0240 hc         1 YR3       0.035533
     43 H11B        -0.5670     2.7930     4.0360 hc         1 YR3       0.035533
     44 H12         -0.5810     4.4650    -2.6270 hc         1 YR3       0.035533
     45 H12A         0.4210     3.0370    -2.3450 hc         1 YR3       0.035533
     46 H12B        -1.3520     2.9000    -2.3170 hc         1 YR3       0.035533
     47 H13         -0.1550     0.6490    -1.4060 ha         1 YR3       0.120000
     48 H22          6.6300    -1.0250    -1.5250 h1         1 YR3       0.085700
     49 H26          8.8930    -2.1060    -1.5600 hc         1 YR3       0.036811
     50 H26A         9.7890    -2.3780    -0.0540 hc         1 YR3       0.036811
     51 H26B         8.4040    -3.4040    -0.4520 hc         1 YR3       0.036811
     52 H25          7.9470     0.7560     0.7790 hc         1 YR3       0.036811
     53 H25A         9.5280    -0.0120     0.6070 hc         1 YR3       0.036811
     54 H25B         8.5840     0.3920    -0.8390 hc         1 YR3       0.036811
     55 H24          7.2510    -2.8150     1.8060 hc         1 YR3       0.036811
     56 H24A         8.7090    -1.8890     2.1940 hc         1 YR3       0.036811
     57 H24B         7.1230    -1.1170     2.3070 hc         1 YR3       0.036811
     58 H21          5.2800    -0.5080     1.1680 h1         1 YR3       0.036700
     59 H21A         5.8030     0.6980    -0.0360 h1         1 YR3       0.036700
     60 H18          2.6120    -0.7930    -2.9400 hc         1 YR3       0.042700
     61 H18A         2.0560    -1.9980    -1.7660 hc         1 YR3       0.042700
     62 H18B         0.8810    -1.0410    -2.6770 hc         1 YR3       0.042700
     63 H16          3.9600     1.4770     1.2540 ha         1 YR3       0.113000
     64 H17          1.9760     2.7960     1.6950 ha         1 YR3       0.110000
     65 H19         -6.3130     2.1410    -0.2260 hc         1 YR3       0.043700
     66 H19A        -5.3450     3.2200    -1.2390 hc         1 YR3       0.043700
     67 H19B        -5.8220     1.6320    -1.8510 hc         1 YR3       0.043700
     68 H28         -4.7200    -2.5340    -0.2860 h1         1 YR3       0.034700
     69 H28A        -5.2430    -2.0380     1.3430 h1         1 YR3       0.034700
     70 H29         -7.5910    -1.7870     0.4890 h1         1 YR3       0.099700
     71 HO32        -7.8870    -3.1020    -1.5480 ho         1 YR3       0.435000
     72 H30         -6.3370    -4.5560     0.1230 h1         1 YR3       0.019700
     73 H30A        -6.9750    -3.8660     1.6260 h1         1 YR3       0.019700
     74 HO31        -8.5230    -5.2390     0.6110 ho         1 YR3       0.444000
     75 HO33         4.8920    -2.4910    -0.6980 ho         1 YR3       0.437000
@<TRIPOS>BOND
     1     1     2 ar  
     2     1     6 ar  
     3     1    34 1   
     4     2     3 ar  
     5     2    28 1   
     6     3     4 ar  
     7     3    27 1   
     8     4     5 ar  
     9     4    35 1   
    10     5     6 ar  
    11     5     7 1   
    12     6    36 1   
    13     7     8 1   
    14     7     9 1   
    15     7    10 1   
    16     8    13 ar  
    17     8    26 ar  
    18     9    12 1   
    19     9    37 1   
    20     9    38 1   
    21    10    11 1   
    22    10    39 1   
    23    10    40 1   
    24    11    41 1   
    25    11    42 1   
    26    11    43 1   
    27    12    44 1   
    28    12    45 1   
    29    12    46 1   
    30    13    14 ar  
    31    13    47 1   
    32    14    15 ar  
    33    14    24 1   
    34    15    23 1   
    35    15    25 ar  
    36    16    17 1   
    37    16    75 1   
    38    17    18 1   
    39    17    22 1   
    40    17    48 1   
    41    18    19 1   
    42    18    20 1   
    43    18    21 1   
    44    19    49 1   
    45    19    50 1   
    46    19    51 1   
    47    20    52 1   
    48    20    53 1   
    49    20    54 1   
    50    21    55 1   
    51    21    56 1   
    52    21    57 1   
    53    22    23 1   
    54    22    58 1   
    55    22    59 1   
    56    24    60 1   
    57    24    61 1   
    58    24    62 1   
    59    25    26 ar  
    60    25    63 1   
    61    26    64 1   
    62    27    65 1   
    63    27    66 1   
    64    27    67 1   
    65    28    29 1   
    66    29    30 1   
    67    29    68 1   
    68    29    69 1   
    69    30    31 1   
    70    30    32 1   
    71    30    70 1   
    72    31    71 1   
    73    32    33 1   
    74    32    72 1   
    75    32    73 1   
    76    33    74 1   
@<TRIPOS>SUBSTRUCTURE
     1 YR3         1 TEMP              0 ****  ****    0 ROOT
