@<TRIPOS>MOLECULE
YR3
   75    76     1     0     0
SMALL
bcc


@<TRIPOS>ATOM
      1 C1          -3.1620    -0.4010     0.5930 ca         1 YR3      -0.218000
      2 C2          -4.2670     0.2090     0.0100 ca         1 YR3       0.135100
      3 C3          -4.1720     1.5300    -0.4440 ca         1 YR3      -0.104300
      4 C4          -2.9640     2.1960    -0.2900 ca         1 YR3      -0.096000
      5 C5          -1.8350     1.6110     0.2850 ca         1 YR3      -0.098300
      6 C6          -1.9690     0.2980     0.7230 ca         1 YR3      -0.090000
      7 C7          -0.5510     2.4000     0.5340 c3         1 YR3       0.067600
      8 C8           0.6940     1.5400     0.3300 ca         1 YR3      -0.098300
      9 C9          -0.4140     3.6270    -0.4030 c3         1 YR3      -0.066400
     10 C10         -0.6410     2.9830     1.9680 c3         1 YR3      -0.066400
     11 C11         -0.7020     1.9940     3.1220 c3         1 YR3      -0.089600
     12 C12         -0.3070     3.3500    -1.8950 c3         1 YR3      -0.089600
     13 C13          0.7440     0.5640    -0.6700 ca         1 YR3      -0.092000
     14 C14          1.8800    -0.1770    -0.9540 ca         1 YR3      -0.106300
     15 C15          3.0400     0.0680    -0.2060 ca         1 YR3       0.138100
     16 O33          5.9650    -2.7600    -0.1470 oh         1 YR3      -0.578800
     17 C22          6.3610    -1.4290    -0.3950 c3         1 YR3       0.150100
     18 C23          7.8020    -1.1320     0.0820 c3         1 YR3      -0.076000
     19 C26          8.7430    -2.1680    -0.5390 c3         1 YR3      -0.086100
     20 C25          8.2370     0.2550    -0.4050 c3         1 YR3      -0.086100
     21 C24          7.9160    -1.1920     1.6070 c3         1 YR3      -0.086100
     22 C21          5.3310    -0.4560     0.1620 c3         1 YR3       0.106400
     23 O20          4.1140    -0.6860    -0.5210 os         1 YR3      -0.312900
     24 C18          1.8800    -1.2130    -2.0390 c3         1 YR3      -0.034800
     25 C16          3.0280     1.0410     0.7840 ca         1 YR3      -0.221000
     26 C17          1.8650     1.7630     1.0390 ca         1 YR3      -0.095000
     27 C19         -5.3500     2.1980    -1.0890 c3         1 YR3      -0.034800
     28 O27         -5.4650    -0.3880    -0.1600 os         1 YR3      -0.306900
     29 C28         -5.6250    -1.7310     0.2430 c3         1 YR3       0.105400
     30 C29         -7.0470    -2.1490    -0.0940 c3         1 YR3       0.142100
     31 O32         -7.3300    -2.0140    -1.4650 oh         1 YR3      -0.561800
     32 C30         -7.3040    -3.5570     0.4200 c3         1 YR3       0.107400
     33 O31         -8.6590    -3.8710     0.2170 oh         1 YR3      -0.578800
     34 H1          -3.2090    -1.4190     0.9550 ha         1 YR3       0.130000
     35 H4          -2.9200     3.2200    -0.6430 ha         1 YR3       0.132000
     36 H6          -1.1280    -0.2080     1.1800 ha         1 YR3       0.136000
     37 H9          -1.2480     4.3110    -0.2170 hc         1 YR3       0.037700
     38 H9A          0.4780     4.1710    -0.0810 hc         1 YR3       0.037700
     39 H10          0.2000     3.6660     2.1200 hc         1 YR3       0.037700
     40 H10A        -1.5310     3.6190     1.9980 hc         1 YR3       0.037700
     41 H11         -1.6190     1.4050     3.1090 hc         1 YR3       0.035533
     42 H11A         0.1390     1.3010     3.1130 hc         1 YR3       0.035533
     43 H11B        -0.6750     2.5300     4.0720 hc         1 YR3       0.035533
     44 H12         -0.2780     4.2900    -2.4470 hc         1 YR3       0.035533
     45 H12A         0.6010     2.8000    -2.1410 hc         1 YR3       0.035533
     46 H12B        -1.1540     2.7770    -2.2730 hc         1 YR3       0.035533
     47 H13         -0.1420     0.3690    -1.2630 ha         1 YR3       0.138000
     48 H22          6.3580    -1.3270    -1.4860 h1         1 YR3       0.085700
     49 H26          8.6880    -2.1430    -1.6310 hc         1 YR3       0.036811
     50 H26A         9.7760    -1.9580    -0.2570 hc         1 YR3       0.036811
     51 H26B         8.5110    -3.1820    -0.2160 hc         1 YR3       0.036811
     52 H25          7.7040     1.0650     0.0930 hc         1 YR3       0.036811
     53 H25A         9.3000     0.4020    -0.2090 hc         1 YR3       0.036811
     54 H25B         8.0820     0.3640    -1.4810 hc         1 YR3       0.036811
     55 H24          7.6330    -2.1680     2.0100 hc         1 YR3       0.036811
     56 H24A         8.9480    -1.0150     1.9170 hc         1 YR3       0.036811
     57 H24B         7.2990    -0.4360     2.0980 hc         1 YR3       0.036811
     58 H21          5.1980    -0.6090     1.2410 h1         1 YR3       0.036700
     59 H21A         5.6550     0.5790     0.0150 h1         1 YR3       0.036700
     60 H18          2.6200    -0.9910    -2.8110 hc         1 YR3       0.042700
     61 H18A         2.1170    -2.2060    -1.6520 hc         1 YR3       0.042700
     62 H18B         0.9050    -1.2680    -2.5210 hc         1 YR3       0.042700
     63 H16          3.9090     1.2560     1.3740 ha         1 YR3       0.131000
     64 H17          1.9090     2.5170     1.8150 ha         1 YR3       0.128000
     65 H19         -6.2060     2.2550    -0.4150 hc         1 YR3       0.043700
     66 H19A        -5.0980     3.2130    -1.3940 hc         1 YR3       0.043700
     67 H19B        -5.6820     1.6590    -1.9780 hc         1 YR3       0.043700
     68 H28         -4.9040    -2.3800    -0.2700 h1         1 YR3       0.034700
     69 H28A        -5.4560    -1.8370     1.3210 h1         1 YR3       0.034700
     70 H29         -7.7330    -1.4660     0.4190 h1         1 YR3       0.099700
     71 HO32        -6.7890    -2.6420    -1.9560 ho         1 YR3       0.396000
     72 H30         -6.6410    -4.2610    -0.1030 h1         1 YR3       0.019700
     73 H30A        -7.0320    -3.6000     1.4830 h1         1 YR3       0.019700
     74 HO31        -8.7940    -4.7880     0.4700 ho         1 YR3       0.405000
     75 HO33         5.9430    -2.9060     0.8050 ho         1 YR3       0.398000
@<TRIPOS>BOND
     1     1     2 ar  
     2     1     6 ar  
     3     1    34 1   
     4     2     3 ar  
     5     2    28 1   
     6     3     4 ar  
     7     3    27 1   
     8     4     5 ar  
     9     4    35 1   
    10     5     6 ar  
    11     5     7 1   
    12     6    36 1   
    13     7     8 1   
    14     7     9 1   
    15     7    10 1   
    16     8    13 ar  
    17     8    26 ar  
    18     9    12 1   
    19     9    37 1   
    20     9    38 1   
    21    10    11 1   
    22    10    39 1   
    23    10    40 1   
    24    11    41 1   
    25    11    42 1   
    26    11    43 1   
    27    12    44 1   
    28    12    45 1   
    29    12    46 1   
    30    13    14 ar  
    31    13    47 1   
    32    14    15 ar  
    33    14    24 1   
    34    15    23 1   
    35    15    25 ar  
    36    16    17 1   
    37    16    75 1   
    38    17    18 1   
    39    17    22 1   
    40    17    48 1   
    41    18    19 1   
    42    18    20 1   
    43    18    21 1   
    44    19    49 1   
    45    19    50 1   
    46    19    51 1   
    47    20    52 1   
    48    20    53 1   
    49    20    54 1   
    50    21    55 1   
    51    21    56 1   
    52    21    57 1   
    53    22    23 1   
    54    22    58 1   
    55    22    59 1   
    56    24    60 1   
    57    24    61 1   
    58    24    62 1   
    59    25    26 ar  
    60    25    63 1   
    61    26    64 1   
    62    27    65 1   
    63    27    66 1   
    64    27    67 1   
    65    28    29 1   
    66    29    30 1   
    67    29    68 1   
    68    29    69 1   
    69    30    31 1   
    70    30    32 1   
    71    30    70 1   
    72    31    71 1   
    73    32    33 1   
    74    32    72 1   
    75    32    73 1   
    76    33    74 1   
@<TRIPOS>SUBSTRUCTURE
     1 YR3         1 TEMP              0 ****  ****    0 ROOT
