@<TRIPOS>MOLECULE
YR4
   78    79     1     0     0
SMALL
bcc


@<TRIPOS>ATOM
      1 C1          -1.7260    -0.5710    -0.6290 ca         1 YR4      -0.090000
      2 C2          -2.8030     0.2980    -0.7480 ca         1 YR4      -0.224000
      3 C3          -3.9630     0.0800    -0.0130 ca         1 YR4       0.144100
      4 C4          -4.0410    -1.0340     0.8350 ca         1 YR4      -0.109300
      5 C5          -2.9440    -1.8810     0.9230 ca         1 YR4      -0.094000
      6 C6          -1.7600    -1.6750     0.2140 ca         1 YR4      -0.100300
      7 C7          -0.6110    -2.6810     0.2610 c3         1 YR4       0.067600
      8 C8           0.7450    -2.0020     0.0770 ca         1 YR4      -0.099300
      9 C9           1.0180    -0.7690     0.6570 ca         1 YR4      -0.091000
     10 C10          1.8020    -2.6300    -0.5850 ca         1 YR4      -0.095000
     11 C11          3.0670    -2.0690    -0.7010 ca         1 YR4      -0.106300
     12 C12          3.2980    -0.8160    -0.1180 ca         1 YR4       0.138100
     13 C13          2.2710    -0.1760     0.5660 ca         1 YR4      -0.220000
     14 C14         -0.5550    -3.4570     1.6030 c3         1 YR4      -0.066400
     15 C15         -0.3550    -2.6370     2.8680 c3         1 YR4      -0.089100
     16 C16         -0.9010    -3.7440    -0.8290 c3         1 YR4      -0.066400
     17 C17         -0.9800    -3.2530    -2.2670 c3         1 YR4      -0.089100
     18 C18         -5.2830    -1.2900     1.6370 c3         1 YR4      -0.032800
     19 C19          4.1630    -2.7740    -1.4440 c3         1 YR4      -0.033800
     20 O20          4.5390    -0.3110    -0.2730 os         1 YR4      -0.311900
     21 O21         -5.0530     0.8740    -0.0280 os         1 YR4      -0.316900
     22 C22          4.8400     0.9480     0.2960 c3         1 YR4       0.106400
     23 C23          6.2880     1.2730    -0.0430 c3         1 YR4       0.150100
     24 C24          6.6980     2.7160     0.3340 c3         1 YR4      -0.076000
     25 O25          7.1500     0.2990     0.5040 oh         1 YR4      -0.578800
     26 C26          6.5390     2.9810     1.8340 c3         1 YR4      -0.086100
     27 C27          8.1630     2.9260    -0.0590 c3         1 YR4      -0.086100
     28 C28          5.8490     3.7200    -0.4510 c3         1 YR4      -0.086100
     29 C29         -5.1240     2.0140    -0.8750 c3         1 YR4       0.159100
     30 C30         -6.1630     2.9480    -0.2740 c3         1 YR4      -0.077400
     31 C31         -5.4450     1.6240    -2.3080 c3         1 YR4       0.113400
     32 C32         -5.7730     3.4440     1.1060 c3         1 YR4       0.140400
     33 O33         -6.7010     0.9930    -2.3520 oh         1 YR4      -0.581800
     34 O34         -6.7320     4.3930     1.5240 oh         1 YR4      -0.601800
     35 H1          -0.8440    -0.3680    -1.2230 ha         1 YR4       0.136000
     36 H2          -2.7100     1.1370    -1.4240 ha         1 YR4       0.129000
     37 H5          -3.0380    -2.7380     1.5780 ha         1 YR4       0.131000
     38 H9           0.2440    -0.2390     1.1960 ha         1 YR4       0.135000
     39 H10          1.6530    -3.6030    -1.0360 ha         1 YR4       0.131000
     40 H13          2.4230     0.7860     1.0360 ha         1 YR4       0.131000
     41 H14         -1.4620    -4.0600     1.7020 hc         1 YR4       0.038450
     42 H14A         0.2610    -4.1810     1.5170 hc         1 YR4       0.038450
     43 H15         -0.4070    -3.2850     3.7440 hc         1 YR4       0.035033
     44 H15A         0.6180    -2.1470     2.8840 hc         1 YR4       0.035033
     45 H15B        -1.1160    -1.8650     2.9860 hc         1 YR4       0.035033
     46 H16         -0.1580    -4.5430    -0.7570 hc         1 YR4       0.038450
     47 H16A        -1.8530    -4.2120    -0.5660 hc         1 YR4       0.038450
     48 H17         -1.1540    -4.0950    -2.9390 hc         1 YR4       0.035033
     49 H17A        -1.7980    -2.5470    -2.4090 hc         1 YR4       0.035033
     50 H17B        -0.0620    -2.7620    -2.5910 hc         1 YR4       0.035033
     51 H18         -6.1700    -1.3600     1.0050 hc         1 YR4       0.042033
     52 H18A        -5.1960    -2.2210     2.1960 hc         1 YR4       0.042033
     53 H18B        -5.4700    -0.4890     2.3560 hc         1 YR4       0.042033
     54 H19          4.4780    -2.2130    -2.3260 hc         1 YR4       0.043033
     55 H19A         5.0510    -2.9140    -0.8260 hc         1 YR4       0.043033
     56 H19B         3.8320    -3.7560    -1.7800 hc         1 YR4       0.043033
     57 H22          4.1680     1.7140    -0.1030 h1         1 YR4       0.037200
     58 H22A         4.6960     0.9180     1.3840 h1         1 YR4       0.037200
     59 H23          6.4030     1.1830    -1.1300 h1         1 YR4       0.085700
     60 HO25         7.0650     0.3150     1.4640 ho         1 YR4       0.398000
     61 H26          7.1520     2.3120     2.4410 hc         1 YR4       0.036922
     62 H26A         6.8570     3.9980     2.0700 hc         1 YR4       0.036922
     63 H26B         5.5040     2.8830     2.1670 hc         1 YR4       0.036922
     64 H27          8.3150     2.7410    -1.1250 hc         1 YR4       0.036922
     65 H27A         8.4650     3.9560     0.1430 hc         1 YR4       0.036922
     66 H27B         8.8360     2.2710     0.4940 hc         1 YR4       0.036922
     67 H28          4.7960     3.6990    -0.1650 hc         1 YR4       0.036922
     68 H28A         6.2080     4.7350    -0.2740 hc         1 YR4       0.036922
     69 H28B         5.9070     3.5350    -1.5260 hc         1 YR4       0.036922
     70 H29         -4.1610     2.5420    -0.8860 h1         1 YR4       0.042700
     71 H30         -6.2590     3.8050    -0.9460 hc         1 YR4       0.071200
     72 H30A        -7.1390     2.4580    -0.2350 hc         1 YR4       0.071200
     73 H31         -5.4200     2.5430    -2.9090 h1         1 YR4       0.026200
     74 H31A        -4.6560     0.9720    -2.7030 h1         1 YR4       0.026200
     75 H32         -5.7190     2.6020     1.8050 h1         1 YR4       0.022200
     76 H32A        -4.7670     3.8850     1.0600 h1         1 YR4       0.022200
     77 HO33        -6.9160     0.8200    -3.2730 ho         1 YR4       0.403000
     78 HO34        -6.5150     4.6620     2.4210 ho         1 YR4       0.404000
@<TRIPOS>BOND
     1     1     2 ar  
     2     1     6 ar  
     3     1    35 1   
     4     2     3 ar  
     5     2    36 1   
     6     3     4 ar  
     7     3    21 1   
     8     4     5 ar  
     9     4    18 1   
    10     5     6 ar  
    11     5    37 1   
    12     6     7 1   
    13     7     8 1   
    14     7    14 1   
    15     7    16 1   
    16     8     9 ar  
    17     8    10 ar  
    18     9    13 ar  
    19     9    38 1   
    20    10    11 ar  
    21    10    39 1   
    22    11    12 ar  
    23    11    19 1   
    24    12    13 ar  
    25    12    20 1   
    26    13    40 1   
    27    14    15 1   
    28    14    41 1   
    29    14    42 1   
    30    15    43 1   
    31    15    44 1   
    32    15    45 1   
    33    16    17 1   
    34    16    46 1   
    35    16    47 1   
    36    17    48 1   
    37    17    49 1   
    38    17    50 1   
    39    18    51 1   
    40    18    52 1   
    41    18    53 1   
    42    19    54 1   
    43    19    55 1   
    44    19    56 1   
    45    20    22 1   
    46    21    29 1   
    47    22    23 1   
    48    22    57 1   
    49    22    58 1   
    50    23    24 1   
    51    23    25 1   
    52    23    59 1   
    53    24    26 1   
    54    24    27 1   
    55    24    28 1   
    56    25    60 1   
    57    26    61 1   
    58    26    62 1   
    59    26    63 1   
    60    27    64 1   
    61    27    65 1   
    62    27    66 1   
    63    28    67 1   
    64    28    68 1   
    65    28    69 1   
    66    29    30 1   
    67    29    31 1   
    68    29    70 1   
    69    30    32 1   
    70    30    71 1   
    71    30    72 1   
    72    31    33 1   
    73    31    73 1   
    74    31    74 1   
    75    32    34 1   
    76    32    75 1   
    77    32    76 1   
    78    33    77 1   
    79    34    78 1   
@<TRIPOS>SUBSTRUCTURE
     1 YR4         1 TEMP              0 ****  ****    0 ROOT
