@<TRIPOS>MOLECULE
YR4
   78    79     1     0     0
SMALL
No Charge or Current Charge


@<TRIPOS>ATOM
      1 C1          -1.7600    -0.6500    -0.6400 ca         1 YR4      -0.072000
      2 C2          -2.8100     0.2780    -0.7090 ca         1 YR4      -0.206000
      3 C3          -3.9570     0.1180     0.0940 ca         1 YR4       0.144100
      4 C4          -4.0360    -0.9850     0.9690 ca         1 YR4      -0.109300
      5 C5          -2.9770    -1.9120     1.0300 ca         1 YR4      -0.076000
      6 C6          -1.8090    -1.7530     0.2440 ca         1 YR4      -0.100300
      7 C7          -0.6390    -2.7850     0.2770 c3         1 YR4       0.067600
      8 C8           0.7440    -2.0860     0.0910 ca         1 YR4      -0.099300
      9 C9           0.9850    -0.8200     0.6740 ca         1 YR4      -0.073000
     10 C10          1.8170    -2.7090    -0.5930 ca         1 YR4      -0.077000
     11 C11          3.0680    -2.0740    -0.7310 ca         1 YR4      -0.106300
     12 C12          3.2740    -0.8000    -0.1660 ca         1 YR4       0.138100
     13 C13          2.2270    -0.1800     0.5430 ca         1 YR4      -0.202000
     14 C14         -0.5530    -3.5800     1.6290 c3         1 YR4      -0.066400
     15 C15         -0.3350    -2.7470     2.9170 c3         1 YR4      -0.089100
     16 C16         -0.9520    -3.8440    -0.8400 c3         1 YR4      -0.066400
     17 C17         -1.0030    -3.3260    -2.2990 c3         1 YR4      -0.089100
     18 C18         -5.2690    -1.1870     1.8440 c3         1 YR4      -0.032800
     19 C19          4.1920    -2.7750    -1.4880 c3         1 YR4      -0.033800
     20 O20          4.5120    -0.2020    -0.3170 os         1 YR4      -0.335100
     21 O21         -5.0130     1.0120     0.0680 os         1 YR4      -0.340100
     22 C22          4.8090     1.1020     0.2210 c3         1 YR4       0.129600
     23 C23          6.2780     1.4550    -0.1540 c3         1 YR4       0.173300
     24 C24          6.8210     2.8090     0.4420 c3         1 YR4      -0.076000
     25 O25          7.1270     0.3560     0.2270 oh         1 YR4      -0.641000
     26 C26          6.8520     2.7890     1.9980 c3         1 YR4      -0.086100
     27 C27          8.2630     3.0690    -0.0810 c3         1 YR4      -0.086100
     28 C28          5.9270     3.9940    -0.0230 c3         1 YR4      -0.086100
     29 C29         -5.1660     2.0440    -0.9330 c3         1 YR4       0.182300
     30 C30         -6.2420     3.0300    -0.4190 c3         1 YR4      -0.077400
     31 C31         -5.5360     1.3950    -2.3050 c3         1 YR4       0.136600
     32 C32         -5.8370     3.7480     0.8840 c3         1 YR4       0.163600
     33 O33         -6.7770     0.6640    -2.2500 oh         1 YR4      -0.644000
     34 O34         -6.8550     4.6850     1.2540 oh         1 YR4      -0.664000
     35 H1          -0.8990    -0.5070    -1.2890 ha         1 YR4       0.118000
     36 H2          -2.7090     1.1140    -1.3930 ha         1 YR4       0.111000
     37 H5          -3.0820    -2.7620     1.6960 ha         1 YR4       0.113000
     38 H9           0.2030    -0.3220     1.2440 ha         1 YR4       0.117000
     39 H10          1.6980    -3.6980    -1.0220 ha         1 YR4       0.113000
     40 H13          2.3560     0.7950     1.0040 ha         1 YR4       0.113000
     41 H14         -1.4480    -4.1990     1.7600 hc         1 YR4       0.038450
     42 H14A         0.2760    -4.2950     1.5600 hc         1 YR4       0.038450
     43 H15         -0.4210    -3.3920     3.7990 hc         1 YR4       0.035033
     44 H15A         0.6660    -2.3010     2.9330 hc         1 YR4       0.035033
     45 H15B        -1.0750    -1.9450     3.0120 hc         1 YR4       0.035033
     46 H16         -0.2350    -4.6710    -0.7870 hc         1 YR4       0.038450
     47 H16A        -1.9250    -4.3010    -0.6230 hc         1 YR4       0.038450
     48 H17         -1.0990    -4.1690    -2.9920 hc         1 YR4       0.035033
     49 H17A        -1.8680    -2.6710    -2.4550 hc         1 YR4       0.035033
     50 H17B        -0.0960    -2.7720    -2.5650 hc         1 YR4       0.035033
     51 H18         -6.1720    -1.2920     1.2300 hc         1 YR4       0.042033
     52 H18A        -5.1890    -2.0850     2.4670 hc         1 YR4       0.042033
     53 H18B        -5.4180    -0.3330     2.5150 hc         1 YR4       0.042033
     54 H19          4.5440    -2.1610    -2.3250 hc         1 YR4       0.043033
     55 H19A         5.0470    -2.9660    -0.8290 hc         1 YR4       0.043033
     56 H19B         3.8710    -3.7390    -1.9000 hc         1 YR4       0.043033
     57 H22          4.1300     1.8520    -0.2040 h1         1 YR4       0.037200
     58 H22A         4.6900     1.0990     1.3110 h1         1 YR4       0.037200
     59 H23          6.2960     1.5540    -1.2490 h1         1 YR4       0.085700
     60 HO25         6.5910    -0.4530     0.0690 ho         1 YR4       0.437000
     61 H26          7.4700     1.9660     2.3750 hc         1 YR4       0.036922
     62 H26A         7.2710     3.7240     2.3900 hc         1 YR4       0.036922
     63 H26B         5.8460     2.6800     2.4200 hc         1 YR4       0.036922
     64 H27          8.2870     3.0770    -1.1770 hc         1 YR4       0.036922
     65 H27A         8.6410     4.0370     0.2710 hc         1 YR4       0.036922
     66 H27B         8.9610     2.2980     0.2680 hc         1 YR4       0.036922
     67 H28          4.9150     3.9230     0.3930 hc         1 YR4       0.036922
     68 H28A         6.3470     4.9530     0.3040 hc         1 YR4       0.036922
     69 H28B         5.8450     4.0190    -1.1170 hc         1 YR4       0.036922
     70 H29         -4.2330     2.6110    -1.0500 h1         1 YR4       0.042700
     71 H30         -6.4310     3.7810    -1.1940 hc         1 YR4       0.071200
     72 H30A        -7.1840     2.4940    -0.2560 hc         1 YR4       0.071200
     73 H31         -5.6080     2.1920    -3.0570 h1         1 YR4       0.026200
     74 H31A        -4.7240     0.7290    -2.6230 h1         1 YR4       0.026200
     75 H32         -5.6950     3.0070     1.6830 h1         1 YR4       0.022200
     76 H32A        -4.8820     4.2660     0.7300 h1         1 YR4       0.022200
     77 HO33        -6.9090     0.2520    -3.1330 ho         1 YR4       0.442000
     78 HO34        -6.5610     5.1110     2.0900 ho         1 YR4       0.443000
@<TRIPOS>BOND
     1     1     2 ar  
     2     1     6 ar  
     3     1    35 1   
     4     2     3 ar  
     5     2    36 1   
     6     3     4 ar  
     7     3    21 1   
     8     4     5 ar  
     9     4    18 1   
    10     5     6 ar  
    11     5    37 1   
    12     6     7 1   
    13     7     8 1   
    14     7    14 1   
    15     7    16 1   
    16     8     9 ar  
    17     8    10 ar  
    18     9    13 ar  
    19     9    38 1   
    20    10    11 ar  
    21    10    39 1   
    22    11    12 ar  
    23    11    19 1   
    24    12    13 ar  
    25    12    20 1   
    26    13    40 1   
    27    14    15 1   
    28    14    41 1   
    29    14    42 1   
    30    15    43 1   
    31    15    44 1   
    32    15    45 1   
    33    16    17 1   
    34    16    46 1   
    35    16    47 1   
    36    17    48 1   
    37    17    49 1   
    38    17    50 1   
    39    18    51 1   
    40    18    52 1   
    41    18    53 1   
    42    19    54 1   
    43    19    55 1   
    44    19    56 1   
    45    20    22 1   
    46    21    29 1   
    47    22    23 1   
    48    22    57 1   
    49    22    58 1   
    50    23    24 1   
    51    23    25 1   
    52    23    59 1   
    53    24    26 1   
    54    24    27 1   
    55    24    28 1   
    56    25    60 1   
    57    26    61 1   
    58    26    62 1   
    59    26    63 1   
    60    27    64 1   
    61    27    65 1   
    62    27    66 1   
    63    28    67 1   
    64    28    68 1   
    65    28    69 1   
    66    29    30 1   
    67    29    31 1   
    68    29    70 1   
    69    30    32 1   
    70    30    71 1   
    71    30    72 1   
    72    31    33 1   
    73    31    73 1   
    74    31    74 1   
    75    32    34 1   
    76    32    75 1   
    77    32    76 1   
    78    33    77 1   
    79    34    78 1   
@<TRIPOS>SUBSTRUCTURE
     1 YR4         1 TEMP              0 ****  ****    0 ROOT
