@<TRIPOS>MOLECULE
YR7
   71    73     1     0     0
SMALL
abcg2


@<TRIPOS>ATOM
      1 C02        -14.0580   -15.0360    10.1710 c6         1 YR7       0.168300
      2 C03        -12.8770   -15.7330    10.8370 c6         1 YR7      -0.091400
      3 C04        -11.9280   -16.3280     9.8020 c6         1 YR7      -0.089900
      4 C05        -14.7940   -16.0090     9.2650 c6         1 YR7      -0.091400
      5 C06        -13.8540   -16.5980     8.2190 c6         1 YR7      -0.089900
      6 C07        -12.6630   -17.2940     8.8770 c6         1 YR7       0.243500
      7 C09        -11.8610   -18.9860     7.2690 ca         1 YR7       0.469900
      8 C10        -10.8790   -19.4560     6.3400 ca         1 YR7      -0.413600
      9 C11         -9.7050   -18.6510     5.9520 c          1 YR7       0.653700
     10 N12         -9.0590   -19.0300     4.8340 ns         1 YR7      -0.498900
     11 C13         -7.8560   -18.4000     4.3230 c6         1 YR7       0.112700
     12 C14         -6.8460   -19.4560     3.8480 c6         1 YR7      -0.112400
     13 C15         -7.0250   -19.7540     2.3640 c6         1 YR7       0.175300
     14 C18         -5.4630   -19.5770    -0.3230 c3         1 YR7      -0.113400
     15 C19         -4.1520   -19.5890    -1.0680 c3         1 YR7       0.183600
     16 C21         -7.0000   -17.3220     2.2180 c6         1 YR7       0.175300
     17 C22         -8.1810   -17.4400     3.1660 c6         1 YR7      -0.112400
     18 C24        -11.0990   -20.7440     5.8750 ca         1 YR7       0.203900
     19 C26        -13.0650   -20.9040     6.9540 ca         1 YR7       0.435900
     20 C28        -15.3510   -21.1170     7.8610 c3         1 YR7       0.233800
     21 C29        -16.2550   -20.3040     6.9390 c3         1 YR7      -0.105400
     22 C30        -17.5500   -19.8510     7.6070 c3         1 YR7      -0.070400
     23 C31        -17.3490   -18.8120     8.7030 c3         1 YR7      -0.092100
     24 F20         -3.1290   -20.0940    -0.2600 f          1 YR7      -0.276000
     25 N08        -11.7270   -17.8220     7.9050 nu         1 YR7      -0.915100
     26 N16         -6.7790   -18.5820     1.5190 n3         1 YR7      -0.739600
     27 N25        -12.1490   -21.4880     6.1580 nb         1 YR7      -0.294000
     28 N27        -14.1720   -21.6240     7.1980 nu         1 YR7      -0.913100
     29 N32        -12.9500   -19.7120     7.5250 nb         1 YR7      -0.348000
     30 O01        -14.9790   -14.5280    11.1140 oh         1 YR7      -0.659000
     31 O23         -9.3360   -17.6770     6.6160 o          1 YR7      -0.657100
     32 H1         -13.6620   -14.2200     9.5450 h1         1 YR7       0.028700
     33 H2         -12.3330   -15.0290    11.4740 hc         1 YR7       0.051450
     34 H3         -13.2560   -16.5280    11.4880 hc         1 YR7       0.051450
     35 H4         -11.1030   -16.8410    10.3010 hc         1 YR7       0.051950
     36 H5         -11.4870   -15.5230     9.2030 hc         1 YR7       0.051950
     37 H6         -15.6320   -15.5090     8.7730 hc         1 YR7       0.051450
     38 H7         -15.2160   -16.8150     9.8760 hc         1 YR7       0.051450
     39 H8         -14.3910   -17.3040     7.5830 hc         1 YR7       0.051950
     40 H9         -13.4790   -15.8010     7.5670 hc         1 YR7       0.051950
     41 H10        -13.0420   -18.1280     9.4770 h1         1 YR7       0.074700
     42 H11         -9.4900   -19.7120     4.2300 hn         1 YR7       0.310500
     43 H12         -7.4170   -17.8370     5.1460 h1         1 YR7       0.083700
     44 H13         -6.9480   -20.3690     4.4390 hc         1 YR7       0.056700
     45 H14         -5.8310   -19.0900     4.0220 hc         1 YR7       0.056700
     46 H15         -8.0370   -20.1380     2.1880 h1         1 YR7       0.039700
     47 H16         -6.3510   -20.5600     2.0730 h1         1 YR7       0.039700
     48 H17         -4.6680   -18.8210     1.5510 h1         1 YR7       0.035700
     49 H18         -5.3010   -17.6000     0.4610 h1         1 YR7       0.035700
     50 H19         -6.2400   -19.2900    -1.0360 hc         1 YR7       0.057700
     51 H20         -5.7020   -20.5950    -0.0020 hc         1 YR7       0.057700
     52 H21         -4.2150   -20.2210    -1.9550 h1         1 YR7       0.042200
     53 H22         -3.8620   -18.5830    -1.3800 h1         1 YR7       0.042200
     54 H23         -6.1130   -17.0000     2.7910 h1         1 YR7       0.039700
     55 H24         -7.1850   -16.5380     1.4800 h1         1 YR7       0.039700
     56 H25         -8.4580   -16.4580     3.5530 hc         1 YR7       0.056700
     57 H26         -9.0460   -17.8120     2.6090 hc         1 YR7       0.056700
     58 H27        -10.3620   -21.2250     5.2380 h4         1 YR7       0.009100
     59 H28        -15.9020   -21.9770     8.2470 h1         1 YR7       0.058700
     60 H29        -15.0400   -20.5270     8.7230 h1         1 YR7       0.058700
     61 H30        -15.7050   -19.4320     6.5720 hc         1 YR7       0.046700
     62 H31        -16.4960   -20.9140     6.0630 hc         1 YR7       0.046700
     63 H32        -18.2100   -19.4360     6.8420 hc         1 YR7       0.037200
     64 H33        -18.0730   -20.7220     8.0130 hc         1 YR7       0.037200
     65 H34        -18.3040   -18.4850     9.1150 hc         1 YR7       0.034367
     66 H35        -16.7530   -19.1940     9.5330 hc         1 YR7       0.034367
     67 H36        -16.8380   -17.9290     8.3140 hc         1 YR7       0.034367
     68 H37        -10.8740   -17.3150     7.7080 hn         1 YR7       0.537000
     69 H39        -14.2560   -22.4810     6.6760 hn         1 YR7       0.502000
     70 H40        -14.5190   -13.8950    11.6750 ho         1 YR7       0.442000
     71 C17         -5.4910   -18.6040     0.8510 c3         1 YR7       0.176800
@<TRIPOS>BOND
     1     1     2 1   
     2     1     4 1   
     3     1    30 1   
     4     1    32 1   
     5     2     3 1   
     6     2    33 1   
     7     2    34 1   
     8     3     6 1   
     9     3    35 1   
    10     3    36 1   
    11     4     5 1   
    12     4    37 1   
    13     4    38 1   
    14     5     6 1   
    15     5    39 1   
    16     5    40 1   
    17     6    25 1   
    18     6    41 1   
    19     7     8 ar  
    20     7    25 1   
    21     7    29 ar  
    22     8     9 1   
    23     8    18 ar  
    24     9    10 1   
    25     9    31 2   
    26    10    11 1   
    27    10    42 1   
    28    11    12 1   
    29    11    17 1   
    30    11    43 1   
    31    12    13 1   
    32    12    44 1   
    33    12    45 1   
    34    13    26 1   
    35    13    46 1   
    36    13    47 1   
    37    14    15 1   
    38    14    50 1   
    39    14    51 1   
    40    14    71 1   
    41    15    24 1   
    42    15    52 1   
    43    15    53 1   
    44    16    17 1   
    45    16    26 1   
    46    16    54 1   
    47    16    55 1   
    48    17    56 1   
    49    17    57 1   
    50    18    27 ar  
    51    18    58 1   
    52    19    27 ar  
    53    19    28 1   
    54    19    29 ar  
    55    20    21 1   
    56    20    28 1   
    57    20    59 1   
    58    20    60 1   
    59    21    22 1   
    60    21    61 1   
    61    21    62 1   
    62    22    23 1   
    63    22    63 1   
    64    22    64 1   
    65    23    65 1   
    66    23    66 1   
    67    23    67 1   
    68    25    68 1   
    69    26    71 1   
    70    28    69 1   
    71    30    70 1   
    72    48    71 1   
    73    49    71 1   
@<TRIPOS>SUBSTRUCTURE
     1 YR7         1 TEMP              0 ****  ****    0 ROOT
