@<TRIPOS>MOLECULE
YR7
   71    73     1     0     0
SMALL
No Charge or Current Charge


@<TRIPOS>ATOM
      1 C02        -13.9000   -14.7120     9.4310 c6         1 YR7       0.168300
      2 C03        -13.1020   -15.5260    10.4820 c6         1 YR7      -0.091400
      3 C04        -12.0600   -16.4530     9.8040 c6         1 YR7      -0.089900
      4 C05        -14.5710   -15.6560     8.4020 c6         1 YR7      -0.091400
      5 C06        -13.5310   -16.5860     7.7260 c6         1 YR7      -0.089900
      6 C07        -12.7340   -17.4010     8.7810 c6         1 YR7       0.243500
      7 C09        -11.9450   -19.2950     7.3010 ca         1 YR7       0.469900
      8 C10        -11.0700   -19.6400     6.2590 ca         1 YR7      -0.413600
      9 C11         -9.8160   -18.8710     5.9660 c          1 YR7       0.653700
     10 N12         -9.0520   -19.3380     4.9250 ns         1 YR7      -0.498900
     11 C13         -7.8060   -18.7330     4.4380 c6         1 YR7       0.112700
     12 C14         -6.9280   -19.7910     3.7070 c6         1 YR7      -0.112400
     13 C15         -7.1380   -19.7440     2.1750 c6         1 YR7       0.175300
     14 C18         -5.2580   -19.2570    -0.3030 c3         1 YR7      -0.113400
     15 C19         -3.9200   -19.0490    -1.0360 c3         1 YR7       0.183600
     16 C21         -6.9520   -17.2720     2.5310 c6         1 YR7       0.175300
     17 C22         -8.1240   -17.5290     3.5030 c6         1 YR7      -0.112400
     18 C24        -11.4430   -20.7570     5.4860 ca         1 YR7       0.203900
     19 C26        -13.3240   -21.0170     6.7440 ca         1 YR7       0.435900
     20 C28        -15.5680   -21.4100     7.9230 c3         1 YR7       0.233800
     21 C29        -16.3950   -20.1960     7.4380 c3         1 YR7      -0.105400
     22 C30        -17.5390   -19.7870     8.3950 c3         1 YR7      -0.070400
     23 C31        -17.0580   -19.2660     9.7660 c3         1 YR7      -0.092100
     24 F20         -2.8860   -19.4210    -0.2410 f          1 YR7      -0.276000
     25 N08        -11.7010   -18.2110     8.1200 nu         1 YR7      -0.915100
     26 N16         -6.7420   -18.4180     1.5910 n3         1 YR7      -0.739600
     27 N25        -12.5720   -21.4470     5.7260 nb         1 YR7      -0.294000
     28 N27        -14.4890   -21.7320     6.9700 nu         1 YR7      -0.913100
     29 N32        -13.0660   -19.9820     7.5500 nb         1 YR7      -0.348000
     30 O01        -14.8950   -13.9190    10.0810 oh         1 YR7      -0.659000
     31 O23         -9.4780   -17.8840     6.6040 o          1 YR7      -0.657100
     32 H1         -13.1980   -14.0570     8.8930 h1         1 YR7       0.028700
     33 H2         -12.5900   -14.8440    11.1760 hc         1 YR7       0.051450
     34 H3         -13.7910   -16.1300    11.0890 hc         1 YR7       0.051450
     35 H4         -11.5370   -17.0420    10.5690 hc         1 YR7       0.051950
     36 H5         -11.2970   -15.8400     9.3030 hc         1 YR7       0.051950
     37 H6         -15.0880   -15.0630     7.6350 hc         1 YR7       0.051450
     38 H7         -15.3400   -16.2630     8.8980 hc         1 YR7       0.051450
     39 H8         -14.0450   -17.2650     7.0330 hc         1 YR7       0.051950
     40 H9         -12.8400   -15.9840     7.1190 hc         1 YR7       0.051950
     41 H10        -13.4350   -18.0490     9.3320 h1         1 YR7       0.074700
     42 H11         -9.4000   -20.1580     4.4480 hn         1 YR7       0.310500
     43 H12         -7.2380   -18.3710     5.3090 h1         1 YR7       0.083700
     44 H13         -7.1360   -20.8000     4.0890 hc         1 YR7       0.056700
     45 H14         -5.8680   -19.6000     3.9250 hc         1 YR7       0.056700
     46 H15         -8.2020   -19.9310     1.9690 h1         1 YR7       0.039700
     47 H16         -6.5870   -20.5740     1.7140 h1         1 YR7       0.039700
     48 H17         -4.6330   -18.6740     1.6910 h1         1 YR7       0.035700
     49 H18         -5.1740   -17.3440     0.6640 h1         1 YR7       0.035700
     50 H19         -6.0750   -19.0180    -0.9940 hc         1 YR7       0.057700
     51 H20         -5.3530   -20.3180    -0.0470 hc         1 YR7       0.057700
     52 H21         -3.8940   -19.6560    -1.9500 h1         1 YR7       0.042200
     53 H22         -3.7940   -17.9930    -1.3090 h1         1 YR7       0.042200
     54 H23         -6.0450   -17.0920     3.1270 h1         1 YR7       0.039700
     55 H24         -7.1460   -16.3510     1.9610 h1         1 YR7       0.039700
     56 H25         -8.3190   -16.6320     4.1060 hc         1 YR7       0.056700
     57 H26         -9.0370   -17.7180     2.9230 hc         1 YR7       0.056700
     58 H27        -10.8430   -21.1170     4.6520 h4         1 YR7       0.009100
     59 H28        -16.2420   -22.2730     8.0250 h1         1 YR7       0.058700
     60 H29        -15.1420   -21.2060     8.9150 h1         1 YR7       0.058700
     61 H30        -15.7370   -19.3310     7.2890 hc         1 YR7       0.046700
     62 H31        -16.8270   -20.4330     6.4580 hc         1 YR7       0.046700
     63 H32        -18.1330   -19.0010     7.9130 hc         1 YR7       0.037200
     64 H33        -18.2120   -20.6400     8.5470 hc         1 YR7       0.037200
     65 H34        -17.9110   -18.9100    10.3570 hc         1 YR7       0.034367
     66 H35        -16.5590   -20.0560    10.3380 hc         1 YR7       0.034367
     67 H36        -16.3570   -18.4320     9.6410 hc         1 YR7       0.034367
     68 H37        -10.8330   -17.7380     7.8410 hn         1 YR7       0.537000
     69 H39        -14.6440   -22.5080     6.3260 hn         1 YR7       0.502000
     70 H40        -14.4180   -13.2850    10.6600 ho         1 YR7       0.442000
     71 C17         -5.3980   -18.3790     0.9610 c3         1 YR7       0.176800
@<TRIPOS>BOND
     1     1     2 1   
     2     1     4 1   
     3     1    30 1   
     4     1    32 1   
     5     2     3 1   
     6     2    33 1   
     7     2    34 1   
     8     3     6 1   
     9     3    35 1   
    10     3    36 1   
    11     4     5 1   
    12     4    37 1   
    13     4    38 1   
    14     5     6 1   
    15     5    39 1   
    16     5    40 1   
    17     6    25 1   
    18     6    41 1   
    19     7     8 ar  
    20     7    25 1   
    21     7    29 ar  
    22     8     9 1   
    23     8    18 ar  
    24     9    10 1   
    25     9    31 2   
    26    10    11 1   
    27    10    42 1   
    28    11    12 1   
    29    11    17 1   
    30    11    43 1   
    31    12    13 1   
    32    12    44 1   
    33    12    45 1   
    34    13    26 1   
    35    13    46 1   
    36    13    47 1   
    37    14    15 1   
    38    14    50 1   
    39    14    51 1   
    40    14    71 1   
    41    15    24 1   
    42    15    52 1   
    43    15    53 1   
    44    16    17 1   
    45    16    26 1   
    46    16    54 1   
    47    16    55 1   
    48    17    56 1   
    49    17    57 1   
    50    18    27 ar  
    51    18    58 1   
    52    19    27 ar  
    53    19    28 1   
    54    19    29 ar  
    55    20    21 1   
    56    20    28 1   
    57    20    59 1   
    58    20    60 1   
    59    21    22 1   
    60    21    61 1   
    61    21    62 1   
    62    22    23 1   
    63    22    63 1   
    64    22    64 1   
    65    23    65 1   
    66    23    66 1   
    67    23    67 1   
    68    25    68 1   
    69    26    71 1   
    70    28    69 1   
    71    30    70 1   
    72    48    71 1   
    73    49    71 1   
@<TRIPOS>SUBSTRUCTURE
     1 YR7         1 TEMP              0 ****  ****    0 ROOT
