@<TRIPOS>MOLECULE
YR8
   62    65     1     0     0
SMALL
No Charge or Current Charge


@<TRIPOS>ATOM
      1 C15        -22.5470    -9.1380     9.7760 c          1 YR8       0.725200
      2 C18        -22.0020   -11.6640    10.1690 cc         1 YR8      -0.157400
      3 C19        -21.5040   -11.9760     8.8320 ca         1 YR8       0.096200
      4 C20        -22.2050   -12.8820     8.0160 ca         1 YR8      -0.131000
      5 C21        -21.7170   -13.2200     6.7420 ca         1 YR8      -0.069000
      6 C22        -20.5140   -12.6610     6.2710 ca         1 YR8      -0.162300
      7 C23        -19.9950   -13.0380     4.8780 c3         1 YR8      -0.200100
      8 C25        -20.3510   -10.3600     3.9260 c3         1 YR8      -0.323100
      9 C12        -22.6620   -11.8540    12.3120 ca         1 YR8      -0.059200
     10 N13        -22.8490   -10.5250    11.9450 na         1 YR8      -0.197700
     11 C01        -22.5270   -11.6070    15.9230 c3         1 YR8      -0.086100
     12 C02        -23.5070   -11.6780    14.7380 c3         1 YR8       0.229600
     13 C05        -27.0030   -13.0940    14.9290 c6         1 YR8      -0.064700
     14 C06        -28.2850   -12.9800    14.0490 c6         1 YR8      -0.107400
     15 C07        -29.3600   -14.0530    14.3810 c6         1 YR8       0.151800
     16 C09        -27.8730   -15.3290    15.8840 c6         1 YR8       0.151800
     17 C10        -26.6870   -14.5920    15.1960 c6         1 YR8      -0.107400
     18 C11        -22.9280   -12.4650    13.5550 ca         1 YR8      -0.137300
     19 C14        -22.4530   -10.4040    10.5850 cd         1 YR8      -0.056300
     20 C28        -19.8050   -11.7650     7.1010 ca         1 YR8       0.163000
     21 C30        -20.2940   -11.4300     8.3720 ca         1 YR8      -0.107000
     22 C31        -22.1560   -12.5710    11.2630 ca         1 YR8      -0.081800
     23 C32        -21.8700   -13.9380    11.3540 ca         1 YR8      -0.070000
     24 C33        -22.1260   -14.5800    12.5810 ca         1 YR8      -0.160000
     25 C34        -22.6520   -13.8500    13.6720 ca         1 YR8      -0.102000
     26 F29        -18.6410   -11.2210     6.6790 f          1 YR8      -0.199000
     27 N08        -29.1720   -14.6180    15.7360 n7         1 YR8      -0.854400
     28 O03        -24.7000   -12.3270    15.2150 os         1 YR8      -0.467000
     29 O16        -22.9650    -8.1390    10.3470 o          1 YR8      -0.699500
     30 O17        -22.2330    -9.1290     8.5940 o          1 YR8      -0.699500
     31 O26        -22.1410   -12.2520     3.4970 o          1 YR8      -0.537000
     32 O27        -19.9150   -12.3890     2.2960 o          1 YR8      -0.537000
     33 S24        -20.6830   -12.0700     3.5070 s6         1 YR8       1.061000
     34 H201       -23.1320   -13.3220     8.3730 ha         1 YR8       0.120000
     35 H211       -22.2760   -13.9180     6.1220 ha         1 YR8       0.111000
     36 H232       -20.2310   -14.0830     4.6520 h1         1 YR8       0.097700
     37 H231       -18.9080   -12.9110     4.8190 h1         1 YR8       0.097700
     38 H251       -20.8780   -10.1380     4.8590 h1         1 YR8       0.107700
     39 H253       -19.2690   -10.2510     4.0460 h1         1 YR8       0.107700
     40 H252       -20.7240    -9.7400     3.1040 h1         1 YR8       0.107700
     41 H131       -23.2190    -9.7750    12.5180 hn         1 YR8       0.369000
     42 H012       -22.9550   -11.0130    16.7390 hc         1 YR8       0.043367
     43 H013       -22.2960   -12.6070    16.3060 hc         1 YR8       0.043367
     44 H011       -21.5890   -11.1320    15.6120 hc         1 YR8       0.043367
     45 H021       -23.7400   -10.6510    14.4290 h1         1 YR8       0.033700
     46 H041       -25.5400   -12.8120    13.3480 h1         1 YR8       0.029700
     47 H042       -26.1220   -11.2960    14.0770 h1         1 YR8       0.029700
     48 H051       -27.2000   -12.6040    15.8940 hc         1 YR8       0.050700
     49 H061       -28.0250   -13.0650    12.9850 hc         1 YR8       0.049200
     50 H062       -28.7170   -11.9780    14.1750 hc         1 YR8       0.049200
     51 H071       -30.3640   -13.6100    14.2930 h1         1 YR8       0.044950
     52 H072       -29.3000   -14.8690    13.6440 h1         1 YR8       0.044950
     53 H091       -27.6580   -15.4500    16.9570 h1         1 YR8       0.044950
     54 H092       -27.9550   -16.3400    15.4570 h1         1 YR8       0.044950
     55 H101       -26.4590   -15.0880    14.2420 hc         1 YR8       0.049200
     56 H102       -25.7860   -14.6970    15.8160 hc         1 YR8       0.049200
     57 H301       -19.7340   -10.7450     9.0010 ha         1 YR8       0.150000
     58 H321       -21.4640   -14.4860    10.5070 ha         1 YR8       0.107000
     59 H331       -21.9190   -15.6420    12.6900 ha         1 YR8       0.094000
     60 H341       -22.8500   -14.3640    14.6100 ha         1 YR8       0.104000
     61 H1         -29.1760   -13.8300    16.3940 hn         1 YR8       0.401000
     62 C04        -25.8090   -12.3260    14.2950 c3         1 YR8       0.166600
@<TRIPOS>BOND
     1     1    19 1   
     2     1    29 1   
     3     1    30 1   
     4     2     3 1   
     5     2    19 2   
     6     2    22 1   
     7     3     4 ar  
     8     3    21 ar  
     9     4     5 ar  
    10     4    34 1   
    11     5     6 ar  
    12     5    35 1   
    13     6     7 1   
    14     6    20 ar  
    15     7    33 1   
    16     7    36 1   
    17     7    37 1   
    18     8    33 1   
    19     8    38 1   
    20     8    39 1   
    21     8    40 1   
    22     9    10 1   
    23     9    18 ar  
    24     9    22 ar  
    25    10    19 1   
    26    10    41 1   
    27    11    12 1   
    28    11    42 1   
    29    11    43 1   
    30    11    44 1   
    31    12    18 1   
    32    12    28 1   
    33    12    45 1   
    34    13    14 1   
    35    13    17 1   
    36    13    48 1   
    37    13    62 1   
    38    14    15 1   
    39    14    49 1   
    40    14    50 1   
    41    15    27 1   
    42    15    51 1   
    43    15    52 1   
    44    16    17 1   
    45    16    27 1   
    46    16    53 1   
    47    16    54 1   
    48    17    55 1   
    49    17    56 1   
    50    18    25 ar  
    51    20    21 ar  
    52    20    26 1   
    53    21    57 1   
    54    22    23 ar  
    55    23    24 ar  
    56    23    58 1   
    57    24    25 ar  
    58    24    59 1   
    59    25    60 1   
    60    27    61 1   
    61    28    62 1   
    62    31    33 2   
    63    32    33 2   
    64    46    62 1   
    65    47    62 1   
@<TRIPOS>SUBSTRUCTURE
     1 YR8         1 TEMP              0 ****  ****    0 ROOT
