@<TRIPOS>MOLECULE
YR8
   62    65     1     0     0
SMALL
abcg2


@<TRIPOS>ATOM
      1 C15        -22.0390    -8.9570     9.9130 c          1 YR8       0.725200
      2 C18        -22.0830   -11.6050     9.7730 cc         1 YR8      -0.157400
      3 C19        -21.4250   -11.9140     8.5020 ca         1 YR8       0.096200
      4 C20        -22.0400   -12.7380     7.5570 ca         1 YR8      -0.131000
      5 C21        -21.4020   -13.0610     6.3710 ca         1 YR8      -0.069000
      6 C22        -20.1240   -12.5890     6.0840 ca         1 YR8      -0.162300
      7 C23        -19.4390   -12.9190     4.8010 c3         1 YR8      -0.200100
      8 C25        -19.4670   -10.1920     3.9740 c3         1 YR8      -0.323100
      9 C12        -23.0710   -11.9000    11.8160 ca         1 YR8      -0.059200
     10 N13        -22.8760   -10.5730    11.5840 na         1 YR8      -0.197700
     11 C01        -22.8010   -11.4360    15.0200 c3         1 YR8      -0.086100
     12 C02        -24.0160   -11.7650    14.1630 c3         1 YR8       0.229600
     13 C05        -27.1310   -13.2430    15.4630 c6         1 YR8      -0.064700
     14 C06        -28.5870   -13.2200    14.9710 c6         1 YR8      -0.107400
     15 C07        -29.4100   -14.3500    15.6150 c6         1 YR8       0.151800
     16 C09        -27.5770   -15.2680    16.8770 c6         1 YR8       0.151800
     17 C10        -26.7170   -14.6830    15.7440 c6         1 YR8      -0.107400
     18 C11        -23.6000   -12.5510    12.9370 ca         1 YR8      -0.137300
     19 C14        -22.2830   -10.3780    10.3700 cd         1 YR8      -0.056300
     20 C28        -19.5260   -11.7880     7.0480 ca         1 YR8       0.163000
     21 C30        -20.1400   -11.4440     8.2310 ca         1 YR8      -0.107000
     22 C31        -22.5900   -12.5920    10.6840 ca         1 YR8      -0.081800
     23 C32        -22.6510   -13.9910    10.6650 ca         1 YR8      -0.070000
     24 C33        -23.1830   -14.6420    11.7580 ca         1 YR8      -0.160000
     25 C34        -23.6430   -13.9310    12.8800 ca         1 YR8      -0.102000
     26 F29        -18.2830   -11.3240     6.8210 f          1 YR8      -0.199000
     27 N08        -28.9350   -14.7300    16.9340 n7         1 YR8      -0.854400
     28 O03        -24.9260   -12.4640    14.9720 os         1 YR8      -0.467000
     29 O16        -22.3860    -8.0840    10.7330 o          1 YR8      -0.699500
     30 O17        -21.5410    -8.8010     8.7880 o          1 YR8      -0.699500
     31 O26        -21.3920   -11.8690     3.3300 o          1 YR8      -0.537000
     32 O27        -19.1350   -12.1840     2.2780 o          1 YR8      -0.537000
     33 S24        -19.9360   -11.8260     3.4480 s6         1 YR8       1.061000
     34 H201       -23.0370   -13.1170     7.7450 ha         1 YR8       0.120000
     35 H211       -21.9020   -13.6980     5.6520 ha         1 YR8       0.111000
     36 H232       -19.7140   -13.9140     4.4410 h1         1 YR8       0.097700
     37 H231       -18.3520   -12.8700     4.8600 h1         1 YR8       0.097700
     38 H251       -20.0280    -9.9080     4.8610 h1         1 YR8       0.107700
     39 H253       -18.3970   -10.1590     4.1640 h1         1 YR8       0.107700
     40 H252       -19.7170    -9.5210     3.1530 h1         1 YR8       0.107700
     41 H131       -23.1320    -9.8000    12.1770 hn         1 YR8       0.369000
     42 H012       -23.0850   -10.8250    15.8780 hc         1 YR8       0.043367
     43 H013       -22.3260   -12.3480    15.3830 hc         1 YR8       0.043367
     44 H011       -22.0620   -10.8800    14.4430 hc         1 YR8       0.043367
     45 H021       -24.4750   -10.8190    13.8340 h1         1 YR8       0.033700
     46 H041       -26.2550   -13.0930    13.5050 h1         1 YR8       0.029700
     47 H042       -26.6250   -11.5360    14.2520 h1         1 YR8       0.029700
     48 H051       -27.0750   -12.6800    16.4030 hc         1 YR8       0.050700
     49 H061       -28.6180   -13.3260    13.8810 hc         1 YR8       0.049200
     50 H062       -29.0320   -12.2480    15.1990 hc         1 YR8       0.049200
     51 H071       -30.4610   -14.0620    15.6800 h1         1 YR8       0.044950
     52 H072       -29.3790   -15.2420    14.9830 h1         1 YR8       0.044950
     53 H091       -27.1020   -15.0700    17.8400 h1         1 YR8       0.044950
     54 H092       -27.6210   -16.3570    16.7720 h1         1 YR8       0.044950
     55 H101       -26.8340   -15.2700    14.8260 hc         1 YR8       0.049200
     56 H102       -25.6620   -14.7500    16.0170 hc         1 YR8       0.049200
     57 H301       -19.6190   -10.8230     8.9450 ha         1 YR8       0.150000
     58 H321       -22.2870   -14.5520     9.8130 ha         1 YR8       0.107000
     59 H331       -23.2420   -15.7220    11.7630 ha         1 YR8       0.094000
     60 H341       -24.0400   -14.4860    13.7220 ha         1 YR8       0.104000
     61 H1         -28.9460   -13.9130    17.5310 hn         1 YR8       0.401000
     62 C04        -26.2360   -12.5440    14.4570 c3         1 YR8       0.166600
@<TRIPOS>BOND
     1     1    19 1   
     2     1    29 1   
     3     1    30 1   
     4     2     3 1   
     5     2    19 2   
     6     2    22 1   
     7     3     4 ar  
     8     3    21 ar  
     9     4     5 ar  
    10     4    34 1   
    11     5     6 ar  
    12     5    35 1   
    13     6     7 1   
    14     6    20 ar  
    15     7    33 1   
    16     7    36 1   
    17     7    37 1   
    18     8    33 1   
    19     8    38 1   
    20     8    39 1   
    21     8    40 1   
    22     9    10 1   
    23     9    18 ar  
    24     9    22 ar  
    25    10    19 1   
    26    10    41 1   
    27    11    12 1   
    28    11    42 1   
    29    11    43 1   
    30    11    44 1   
    31    12    18 1   
    32    12    28 1   
    33    12    45 1   
    34    13    14 1   
    35    13    17 1   
    36    13    48 1   
    37    13    62 1   
    38    14    15 1   
    39    14    49 1   
    40    14    50 1   
    41    15    27 1   
    42    15    51 1   
    43    15    52 1   
    44    16    17 1   
    45    16    27 1   
    46    16    53 1   
    47    16    54 1   
    48    17    55 1   
    49    17    56 1   
    50    18    25 ar  
    51    20    21 ar  
    52    20    26 1   
    53    21    57 1   
    54    22    23 ar  
    55    23    24 ar  
    56    23    58 1   
    57    24    25 ar  
    58    24    59 1   
    59    25    60 1   
    60    27    61 1   
    61    28    62 1   
    62    31    33 2   
    63    32    33 2   
    64    46    62 1   
    65    47    62 1   
@<TRIPOS>SUBSTRUCTURE
     1 YR8         1 TEMP              0 ****  ****    0 ROOT
