@<TRIPOS>MOLECULE
YRA
   37    38     1     0     0
SMALL
No Charge or Current Charge


@<TRIPOS>ATOM
      1 N1           2.9570     0.2200     0.1950 n7         1 YRA      -0.866400
      2 C2           4.4010     0.1830     0.4860 c3         1 YRA       0.168800
      3 C4           0.6220     0.3910     0.9530 ca         1 YRA      -0.078300
      4 C5           0.0120     1.5660     0.4780 ca         1 YRA      -0.085000
      5 C6          -1.3400     1.5580     0.0960 ca         1 YRA      -0.100000
      6 C8          -1.4920    -0.8040     0.6610 ca         1 YRA       0.128000
      7 C7          -2.1180     0.3760     0.1710 cp         1 YRA      -0.024000
      8 C10         -3.5510     0.4130    -0.2510 cp         1 YRA      -0.041000
      9 C15         -4.4310     1.3890     0.2780 ca         1 YRA      -0.089500
     10 C14         -5.7770     1.4440    -0.1230 ca         1 YRA      -0.113000
     11 C13         -6.2670     0.5270    -1.0680 ca         1 YRA      -0.104000
     12 C12         -5.4080    -0.4400    -1.6150 ca         1 YRA      -0.113000
     13 C11         -4.0620    -0.4940    -1.2120 ca         1 YRA      -0.089500
     14 C9          -0.1390    -0.7900     1.0430 ca         1 YRA      -0.104000
     15 C3           2.0860     0.4000     1.3700 c3         1 YRA       0.205100
     16 C1           5.1820     0.0140    -0.8270 c3         1 YRA      -0.167400
     17 C            6.7010    -0.0220    -0.6620 c          1 YRA       0.605100
     18 O            7.2750     0.0530     0.4110 o          1 YRA      -0.605100
     19 N            7.4090    -0.1480    -1.8040 nt         1 YRA      -0.613000
     20 H1           2.6960    -0.6660    -0.2540 hn         1 YRA       0.407000
     21 H3           4.7190     1.1150     0.9760 h1         1 YRA       0.048200
     22 H4           4.6410    -0.6510     1.1600 h1         1 YRA       0.048200
     23 H5           0.5890     2.4850     0.4010 ha         1 YRA       0.128000
     24 H6          -1.7910     2.4750    -0.2750 ha         1 YRA       0.121000
     25 H7          -4.0640     2.1030     1.0120 ha         1 YRA       0.117000
     26 H8          -6.4390     2.1970     0.2980 ha         1 YRA       0.113000
     27 H9          -7.3080     0.5700    -1.3800 ha         1 YRA       0.112000
     28 H10         -5.7830    -1.1460    -2.3520 ha         1 YRA       0.113000
     29 H11         -3.4050    -1.2390    -1.6540 ha         1 YRA       0.117000
     30 H12          0.3180    -1.7030     1.4180 ha         1 YRA       0.126000
     31 H13          2.2570    -0.4010     2.1030 h1         1 YRA       0.041700
     32 H14          2.3100     1.3520     1.8720 h1         1 YRA       0.041700
     33 H15          4.8820    -0.8870    -1.3750 hc         1 YRA       0.062200
     34 H16          4.9410     0.7980    -1.5540 hc         1 YRA       0.062200
     35 H17          6.9320    -0.2100    -2.6910 hn         1 YRA       0.313500
     36 H18          8.4170    -0.1780    -1.7590 hn         1 YRA       0.313500
     37 Cl          -2.3790    -2.3160     0.8600 cl         1 YRA      -0.201000
@<TRIPOS>BOND
     1     1     2 1   
     2     1    15 1   
     3     1    20 1   
     4     2    16 1   
     5     2    21 1   
     6     2    22 1   
     7     3     4 ar  
     8     3    14 ar  
     9     3    15 1   
    10     4     5 ar  
    11     4    23 1   
    12     5     7 ar  
    13     5    24 1   
    14     6     7 ar  
    15     6    14 ar  
    16     6    37 1   
    17     7     8 1   
    18     8     9 ar  
    19     8    13 ar  
    20     9    10 ar  
    21     9    25 1   
    22    10    11 ar  
    23    10    26 1   
    24    11    12 ar  
    25    11    27 1   
    26    12    13 ar  
    27    12    28 1   
    28    13    29 1   
    29    14    30 1   
    30    15    31 1   
    31    15    32 1   
    32    16    17 1   
    33    16    33 1   
    34    16    34 1   
    35    17    18 2   
    36    17    19 1   
    37    19    35 1   
    38    19    36 1   
@<TRIPOS>SUBSTRUCTURE
     1 YRA         1 TEMP              0 ****  ****    0 ROOT
