@<TRIPOS>MOLECULE
YRA
   37    38     1     0     0
SMALL
abcg2


@<TRIPOS>ATOM
      1 N1           2.9160     0.0840     0.1050 n7         1 YRA      -0.866400
      2 C2           4.3290     0.1230     0.4370 c3         1 YRA       0.168800
      3 C4           0.6170     0.1630     0.8920 ca         1 YRA      -0.078300
      4 C5           0.1200     1.2540     0.1820 ca         1 YRA      -0.085000
      5 C6          -1.2160     1.3130    -0.1690 ca         1 YRA      -0.100000
      6 C8          -1.5930    -0.7970     0.8580 ca         1 YRA       0.128000
      7 C7          -2.1080     0.2880     0.1550 cp         1 YRA      -0.024000
      8 C10         -3.5290     0.4040    -0.2390 cp         1 YRA      -0.041000
      9 C15         -4.2840     1.4880     0.2060 ca         1 YRA      -0.089500
     10 C14         -5.6110     1.6300    -0.1770 ca         1 YRA      -0.113000
     11 C13         -6.1970     0.6920    -1.0170 ca         1 YRA      -0.104000
     12 C12         -5.4490    -0.3870    -1.4710 ca         1 YRA      -0.113000
     13 C11         -4.1250    -0.5320    -1.0830 ca         1 YRA      -0.089500
     14 C9          -0.2550    -0.8640     1.2230 ca         1 YRA      -0.104000
     15 C3           2.0680     0.1000     1.2810 c3         1 YRA       0.205100
     16 C1           5.1590     0.0430    -0.8320 c3         1 YRA      -0.167400
     17 C            6.6490     0.1610    -0.5880 c          1 YRA       0.605100
     18 O            7.1430     0.0940     0.5280 o          1 YRA      -0.605100
     19 N            7.3840     0.3390    -1.6980 nt         1 YRA      -0.613000
     20 H1           2.7210    -0.7600    -0.4210 hn         1 YRA       0.407000
     21 H3           4.5310     1.0660     0.9510 h1         1 YRA       0.048200
     22 H4           4.6240    -0.6780     1.1280 h1         1 YRA       0.048200
     23 H5           0.7830     2.0640    -0.0940 ha         1 YRA       0.128000
     24 H6          -1.5870     2.1700    -0.7170 ha         1 YRA       0.121000
     25 H7          -3.8330     2.2200     0.8640 ha         1 YRA       0.117000
     26 H8          -6.1860     2.4720     0.1840 ha         1 YRA       0.113000
     27 H9          -7.2300     0.8030    -1.3190 ha         1 YRA       0.112000
     28 H10         -5.8970    -1.1170    -2.1320 ha         1 YRA       0.113000
     29 H11         -3.5480    -1.3710    -1.4510 ha         1 YRA       0.117000
     30 H12          0.1080    -1.7240     1.7730 ha         1 YRA       0.126000
     31 H13          2.2320    -0.7590     1.9480 h1         1 YRA       0.041700
     32 H14          2.3190     0.9910     1.8650 h1         1 YRA       0.041700
     33 H15          4.9770    -0.9110    -1.3380 hc         1 YRA       0.062200
     34 H16          4.8410     0.8190    -1.5340 hc         1 YRA       0.062200
     35 H17          6.9650     0.3760    -2.6110 hn         1 YRA       0.313500
     36 H18          8.3880     0.3780    -1.6450 hn         1 YRA       0.313500
     37 CL          -2.6310    -2.1010     1.3430 cl         1 YRA      -0.201000
@<TRIPOS>BOND
     1     1     2 1   
     2     1    15 1   
     3     1    20 1   
     4     2    16 1   
     5     2    21 1   
     6     2    22 1   
     7     3     4 ar  
     8     3    14 ar  
     9     3    15 1   
    10     4     5 ar  
    11     4    23 1   
    12     5     7 ar  
    13     5    24 1   
    14     6     7 ar  
    15     6    14 ar  
    16     6    37 1   
    17     7     8 1   
    18     8     9 ar  
    19     8    13 ar  
    20     9    10 ar  
    21     9    25 1   
    22    10    11 ar  
    23    10    26 1   
    24    11    12 ar  
    25    11    27 1   
    26    12    13 ar  
    27    12    28 1   
    28    13    29 1   
    29    14    30 1   
    30    15    31 1   
    31    15    32 1   
    32    16    17 1   
    33    16    33 1   
    34    16    34 1   
    35    17    18 2   
    36    17    19 1   
    37    19    35 1   
    38    19    36 1   
@<TRIPOS>SUBSTRUCTURE
     1 YRA         1 TEMP              0 ****  ****    0 ROOT
