@<TRIPOS>MOLECULE
YRB
  127   128     1     0     0
SMALL
abcg2


@<TRIPOS>ATOM
      1 C01        369.3500   236.3400   250.1270 c3         1 YRB       0.046700
      2 N01        368.6620   237.2220   251.0390 ns         1 YRB      -0.495900
      3 O01        368.6480   237.5720   248.2050 o          1 YRB      -0.630100
      4 C02        368.6980   236.4820   248.7550 c          1 YRB       0.603100
      5 N02        368.1490   235.3930   248.2070 ns         1 YRB      -0.474900
      6 O02        371.3610   235.8850   249.0090 oh         1 YRB      -0.658000
      7 C03        370.8320   236.7200   250.0160 c3         1 YRB       0.167300
      8 N03        368.0470   236.8520   244.9380 n          1 YRB      -0.413800
      9 O03        369.6360   235.5880   245.9140 o          1 YRB      -0.582100
     10 C04        371.6000   236.6080   251.3380 c3         1 YRB      -0.085700
     11 N04        369.1780   239.8160   244.4470 n          1 YRB      -0.401800
     12 O04        368.0990   239.1000   242.6200 o          1 YRB      -0.600100
     13 C05        373.0230   237.1360   251.1630 c3         1 YRB      -0.091100
     14 N05        368.0860   240.4470   247.0990 ns         1 YRB      -0.464900
     15 O05        370.0440   241.5640   247.1420 o          1 YRB      -0.623100
     16 C06        371.6170   235.1980   251.9190 c3         1 YRB      -0.091100
     17 N06        367.4890   241.9530   250.4170 n          1 YRB      -0.394800
     18 O06        368.6240   240.1650   249.7080 o          1 YRB      -0.606100
     19 C07        367.4730   235.5110   246.9380 c3         1 YRB       0.049700
     20 N07        367.8200   239.2120   252.7270 n          1 YRB      -0.408800
     21 O07        366.0530   239.9470   251.5300 o          1 YRB      -0.607100
     22 C08        368.4810   235.9820   245.8810 c          1 YRB       0.593100
     23 O08        367.8680   235.6300   252.4350 o          1 YRB      -0.617100
     24 C09        366.7710   234.1990   246.5450 c3         1 YRB      -0.064700
     25 C10        365.7330   233.7780   247.5930 c3         1 YRB      -0.075400
     26 C11        367.7280   233.0470   246.2500 c3         1 YRB      -0.091100
     27 C12        364.7050   234.8430   247.9470 c3         1 YRB      -0.093100
     28 C13        369.0270   237.3660   243.9840 c3         1 YRB       0.034700
     29 C14        368.7200   238.8310   243.6370 c          1 YRB       0.585100
     30 C15        369.0860   236.5160   242.7220 c3         1 YRB      -0.097100
     31 C16        366.6580   237.2210   244.7370 c3         1 YRB       0.086300
     32 C17        369.8610   239.5950   245.7160 c3         1 YRB       0.002700
     33 C18        369.3600   240.6340   246.7390 c          1 YRB       0.607100
     34 C19        371.4060   239.5250   245.6570 c3         1 YRB       0.180300
     35 C20        372.1290   240.6580   244.8930 c3         1 YRB      -0.086700
     36 C21        373.5450   240.8790   245.4220 c3         1 YRB      -0.087100
     37 C22        372.2090   240.3350   243.4010 c3         1 YRB      -0.087100
     38 C23        368.9070   241.1790   244.0060 c3         1 YRB       0.080300
     39 C24        367.3690   241.2970   248.0120 c3         1 YRB       0.052700
     40 C25        367.8930   241.1090   249.4440 c          1 YRB       0.590100
     41 C26        365.8820   240.9170   247.9470 c3         1 YRB      -0.089400
     42 C27        365.2520   241.0010   246.5520 c3         1 YRB      -0.056700
     43 C28        363.8150   240.4940   246.6190 c3         1 YRB      -0.089100
     44 C29        367.8280   241.5160   251.7690 c3         1 YRB       0.045700
     45 C30        367.1630   240.1470   251.9980 c          1 YRB       0.598100
     46 C31        367.3740   242.4740   252.8630 c3         1 YRB      -0.101100
     47 C32        366.6350   243.1030   250.2100 c3         1 YRB       0.096300
     48 C33        367.2210   237.8950   252.8950 c6         1 YRB       0.021700
     49 C34        367.9680   236.8030   252.1110 c          1 YRB       0.592100
     50 C35        367.0740   237.5430   254.3730 c6         1 YRB      -0.074400
     51 C36        369.0810   239.4090   253.4330 c6         1 YRB       0.102000
     52 C38        365.3450   242.3880   245.9100 c3         1 YRB      -0.074400
     53 C39        368.3860   237.7000   255.1270 c6         1 YRB      -0.076400
     54 C40        368.9400   239.1020   254.9160 c6         1 YRB      -0.097400
     55 O09        371.8640   239.3170   246.9750 oh         1 YRB      -0.656000
     56 H1         369.2460   235.3180   250.4940 h1         1 YRB       0.093700
     57 H2         368.6650   238.2070   250.8040 hn         1 YRB       0.356500
     58 H3         368.2600   234.4940   248.6480 hn         1 YRB       0.335500
     59 H4         372.1510   236.2970   248.6480 ho         1 YRB       0.459000
     60 H5         370.8730   237.7720   249.6980 h1         1 YRB       0.060700
     61 H6         371.0960   237.2680   252.0500 hc         1 YRB       0.045700
     62 H7         373.5380   237.1790   252.1230 hc         1 YRB       0.036533
     63 H8         373.6150   236.4930   250.5080 hc         1 YRB       0.036533
     64 H9         373.0260   238.1430   250.7400 hc         1 YRB       0.036533
     65 H10        367.6800   239.5460   246.8990 hn         1 YRB       0.335500
     66 H11        372.2170   235.1750   252.8300 hc         1 YRB       0.036533
     67 H12        370.6210   234.8420   252.1830 hc         1 YRB       0.036533
     68 H13        372.0570   234.4850   251.2200 hc         1 YRB       0.036533
     69 H14        366.7050   236.2780   247.0580 h1         1 YRB       0.068700
     70 H15        366.2240   234.4160   245.6220 hc         1 YRB       0.051700
     71 H16        365.2150   232.9000   247.1970 hc         1 YRB       0.043200
     72 H17        366.2360   233.4340   248.5010 hc         1 YRB       0.043200
     73 H18        367.1570   232.1590   245.9790 hc         1 YRB       0.043033
     74 H19        368.4010   233.2640   245.4220 hc         1 YRB       0.043033
     75 H20        368.3400   232.7830   247.1150 hc         1 YRB       0.043033
     76 H21        363.9230   234.4240   248.5810 hc         1 YRB       0.035700
     77 H22        365.1450   235.6780   248.4940 hc         1 YRB       0.035700
     78 H23        364.2240   235.2450   247.0540 hc         1 YRB       0.035700
     79 H24        370.0020   237.3110   244.4640 h1         1 YRB       0.093700
     80 H25        369.3760   235.5000   242.9880 hc         1 YRB       0.049367
     81 H26        368.1290   236.4750   242.2050 hc         1 YRB       0.049367
     82 H27        369.8290   236.9050   242.0270 hc         1 YRB       0.049367
     83 H28        365.9800   236.4880   245.1610 h1         1 YRB       0.043700
     84 H29        366.4250   238.1940   245.1750 h1         1 YRB       0.043700
     85 H30        366.4370   237.2650   243.6730 h1         1 YRB       0.043700
     86 H31        369.5420   238.6290   246.1100 h1         1 YRB       0.106700
     87 H32        371.6540   238.5950   245.1330 h1         1 YRB       0.069700
     88 H33        371.5850   241.5980   245.0160 hc         1 YRB       0.060700
     89 H34        373.5630   241.2380   246.4510 hc         1 YRB       0.034867
     90 H35        374.1390   239.9640   245.3740 hc         1 YRB       0.034867
     91 H36        374.0490   241.6290   244.8100 hc         1 YRB       0.034867
     92 H37        372.6740   241.1570   242.8560 hc         1 YRB       0.034867
     93 H38        372.8210   239.4440   243.2380 hc         1 YRB       0.034867
     94 H39        371.2390   240.1500   242.9440 hc         1 YRB       0.034867
     95 H40        369.4530   241.8860   244.6210 h1         1 YRB       0.047700
     96 H41        369.2250   241.3250   242.9760 h1         1 YRB       0.047700
     97 H42        367.8440   241.4170   244.0740 h1         1 YRB       0.047700
     98 H43        367.5070   242.3340   247.6960 h1         1 YRB       0.081700
     99 H44        365.3130   241.5390   248.6390 hc         1 YRB       0.061700
    100 H45        365.7760   239.8920   248.3190 hc         1 YRB       0.061700
    101 H46        365.7960   240.3190   245.8890 hc         1 YRB       0.045700
    102 H47        363.7840   239.4550   246.9530 hc         1 YRB       0.035367
    103 H48        363.2090   241.0780   247.3140 hc         1 YRB       0.035367
    104 H49        363.3370   240.5400   245.6390 hc         1 YRB       0.035367
    105 H50        368.9130   241.4360   251.8200 h1         1 YRB       0.079700
    106 H51        367.6670   242.0690   253.8330 hc         1 YRB       0.050367
    107 H52        367.8510   243.4480   252.7660 hc         1 YRB       0.050367
    108 H53        366.2940   242.6100   252.8760 hc         1 YRB       0.050367
    109 H54        366.9820   243.9440   250.8060 h1         1 YRB       0.042700
    110 H55        366.6730   243.4270   249.1750 h1         1 YRB       0.042700
    111 H56        365.5940   242.9020   250.4710 h1         1 YRB       0.042700
    112 H57        366.2260   237.9330   252.4490 h1         1 YRB       0.105700
    113 H58        366.3260   238.2160   254.8000 hc         1 YRB       0.061200
    114 H59        366.6790   236.5330   254.4700 hc         1 YRB       0.061200
    115 H60        369.8430   238.7550   252.9960 h1         1 YRB       0.052700
    116 H61        369.4380   240.4250   253.3010 h1         1 YRB       0.052700
    117 H62        364.7300   244.4500   246.1120 hc         1 YRB       0.030367
    118 H63        363.5230   243.3080   246.6770 hc         1 YRB       0.030367
    119 H64        364.9450   243.6450   247.6540 hc         1 YRB       0.030367
    120 H65        366.3960   242.6720   245.8030 hc         1 YRB       0.041700
    121 H66        364.9630   242.3090   244.8880 hc         1 YRB       0.041700
    122 H67        369.1130   236.9610   254.7770 hc         1 YRB       0.051200
    123 H68        368.2330   237.5060   256.1900 hc         1 YRB       0.051200
    124 H69        369.9190   239.2120   255.3860 hc         1 YRB       0.047200
    125 H70        368.2770   239.8400   255.3760 hc         1 YRB       0.047200
    126 H71        371.7610   240.1400   247.4650 ho         1 YRB       0.461000
    127 C37        364.5950   243.5010   246.6310 c3         1 YRB      -0.088100
@<TRIPOS>BOND
     1     1     2 1   
     2     1     4 1   
     3     1     7 1   
     4     1    56 1   
     5     2    49 1   
     6     2    57 1   
     7     3     4 2   
     8     4     5 1   
     9     5    19 1   
    10     5    58 1   
    11     6     7 1   
    12     6    59 1   
    13     7    10 1   
    14     7    60 1   
    15     8    22 1   
    16     8    28 1   
    17     8    31 1   
    18     9    22 2   
    19    10    13 1   
    20    10    16 1   
    21    10    61 1   
    22    11    29 1   
    23    11    32 1   
    24    11    38 1   
    25    12    29 2   
    26    13    62 1   
    27    13    63 1   
    28    13    64 1   
    29    14    33 1   
    30    14    39 1   
    31    14    65 1   
    32    15    33 2   
    33    16    66 1   
    34    16    67 1   
    35    16    68 1   
    36    17    40 1   
    37    17    44 1   
    38    17    47 1   
    39    18    40 2   
    40    19    22 1   
    41    19    24 1   
    42    19    69 1   
    43    20    45 1   
    44    20    48 1   
    45    20    51 1   
    46    21    45 2   
    47    23    49 2   
    48    24    25 1   
    49    24    26 1   
    50    24    70 1   
    51    25    27 1   
    52    25    71 1   
    53    25    72 1   
    54    26    73 1   
    55    26    74 1   
    56    26    75 1   
    57    27    76 1   
    58    27    77 1   
    59    27    78 1   
    60    28    29 1   
    61    28    30 1   
    62    28    79 1   
    63    30    80 1   
    64    30    81 1   
    65    30    82 1   
    66    31    83 1   
    67    31    84 1   
    68    31    85 1   
    69    32    33 1   
    70    32    34 1   
    71    32    86 1   
    72    34    35 1   
    73    34    55 1   
    74    34    87 1   
    75    35    36 1   
    76    35    37 1   
    77    35    88 1   
    78    36    89 1   
    79    36    90 1   
    80    36    91 1   
    81    37    92 1   
    82    37    93 1   
    83    37    94 1   
    84    38    95 1   
    85    38    96 1   
    86    38    97 1   
    87    39    40 1   
    88    39    41 1   
    89    39    98 1   
    90    41    42 1   
    91    41    99 1   
    92    41   100 1   
    93    42    43 1   
    94    42    52 1   
    95    42   101 1   
    96    43   102 1   
    97    43   103 1   
    98    43   104 1   
    99    44    45 1   
   100    44    46 1   
   101    44   105 1   
   102    46   106 1   
   103    46   107 1   
   104    46   108 1   
   105    47   109 1   
   106    47   110 1   
   107    47   111 1   
   108    48    49 1   
   109    48    50 1   
   110    48   112 1   
   111    50    53 1   
   112    50   113 1   
   113    50   114 1   
   114    51    54 1   
   115    51   115 1   
   116    51   116 1   
   117    52   120 1   
   118    52   121 1   
   119    52   127 1   
   120    53    54 1   
   121    53   122 1   
   122    53   123 1   
   123    54   124 1   
   124    54   125 1   
   125    55   126 1   
   126   117   127 1   
   127   118   127 1   
   128   119   127 1   
@<TRIPOS>SUBSTRUCTURE
     1 YRB         1 TEMP              0 ****  ****    0 ROOT
