@<TRIPOS>MOLECULE
YRB
  127   128     1     0     0
SMALL
No Charge or Current Charge


@<TRIPOS>ATOM
      1 C01        368.8700   236.2790   250.5380 c3         1 YRB       0.046700
      2 N01        368.5670   237.1970   251.6680 ns         1 YRB      -0.495900
      3 O01        367.0150   237.3650   249.3390 o          1 YRB      -0.630100
      4 C02        367.9510   236.5770   249.3090 c          1 YRB       0.603100
      5 N02        368.2660   235.8940   248.1550 ns         1 YRB      -0.474900
      6 O02        370.6740   235.1050   249.3630 oh         1 YRB      -0.658000
      7 C03        370.3910   236.2590   250.1700 c3         1 YRB       0.167300
      8 N03        368.2320   236.8040   244.4880 n          1 YRB      -0.413800
      9 O03        369.7770   235.8220   245.8740 o          1 YRB      -0.582100
     10 C04        371.3710   236.2770   251.3890 c3         1 YRB      -0.085700
     11 N04        369.4750   239.6430   243.4440 n          1 YRB      -0.401800
     12 O04        368.9950   238.5230   241.5050 o          1 YRB      -0.600100
     13 C05        372.8500   236.4220   250.9510 c3         1 YRB      -0.091100
     14 N05        368.4330   240.3880   247.0090 ns         1 YRB      -0.464900
     15 O05        368.2560   241.7330   245.1950 o          1 YRB      -0.623100
     16 C06        371.1950   235.0670   252.3440 c3         1 YRB      -0.091100
     17 N06        367.4100   241.8380   250.3830 n          1 YRB      -0.394800
     18 O06        368.8710   240.2170   249.6830 o          1 YRB      -0.606100
     19 C07        367.5650   235.9950   246.8540 c3         1 YRB       0.049700
     20 N07        367.9410   239.4590   253.3140 n          1 YRB      -0.408800
     21 O07        366.1910   239.7150   251.8540 o          1 YRB      -0.607100
     22 C08        368.6190   236.1910   245.7140 c          1 YRB       0.593100
     23 O08        366.7280   236.1220   252.4450 o          1 YRB      -0.617100
     24 C09        366.6420   234.7540   246.6090 c3         1 YRB      -0.064700
     25 C10        365.3920   234.7220   247.5340 c3         1 YRB      -0.075400
     26 C11        367.4190   233.4150   246.6990 c3         1 YRB      -0.091100
     27 C12        364.4160   235.9030   247.3430 c3         1 YRB      -0.093100
     28 C13        369.2530   237.0350   243.4100 c3         1 YRB       0.034700
     29 C14        369.2260   238.4430   242.7080 c          1 YRB       0.585100
     30 C15        369.1960   235.8670   242.3930 c3         1 YRB      -0.097100
     31 C16        366.8740   237.3730   244.2860 c3         1 YRB       0.086300
     32 C17        369.6130   239.6830   244.9530 c3         1 YRB       0.002700
     33 C18        368.7210   240.7220   245.7040 c          1 YRB       0.607100
     34 C19        371.0840   239.6580   245.4790 c3         1 YRB       0.180300
     35 C20        371.8880   241.0020   245.3470 c3         1 YRB      -0.086700
     36 C21        372.8210   241.3270   246.5470 c3         1 YRB      -0.087100
     37 C22        372.7200   241.0400   244.0390 c3         1 YRB      -0.087100
     38 C23        369.4880   240.9310   242.7000 c3         1 YRB       0.080300
     39 C24        367.4760   241.0870   247.8960 c3         1 YRB       0.052700
     40 C25        367.9830   241.0090   249.3750 c          1 YRB       0.590100
     41 C26        366.0430   240.4820   247.7550 c3         1 YRB      -0.089400
     42 C27        365.3020   240.7420   246.4100 c3         1 YRB      -0.056700
     43 C28        364.0550   239.8360   246.2760 c3         1 YRB      -0.089100
     44 C29        367.7680   241.5600   251.8160 c3         1 YRB       0.045700
     45 C30        367.2410   240.1670   252.2970 c          1 YRB       0.598100
     46 C31        367.3530   242.6530   252.8360 c3         1 YRB      -0.101100
     47 C32        366.4490   242.9330   250.0820 c3         1 YRB       0.096300
     48 C33        367.4370   238.0810   253.7130 c6         1 YRB       0.021700
     49 C34        367.5630   237.0050   252.5920 c          1 YRB       0.592100
     50 C35        368.0810   237.5520   255.0260 c6         1 YRB      -0.074400
     51 C36        369.3740   239.7930   253.6290 c6         1 YRB       0.102000
     52 C38        364.9600   242.2390   246.1510 c3         1 YRB      -0.074400
     53 C39        369.6090   237.6830   255.0360 c6         1 YRB      -0.076400
     54 C40        369.9600   239.1680   254.9120 c6         1 YRB      -0.097400
     55 O09        371.0550   239.2010   246.8390 oh         1 YRB      -0.656000
     56 H1         368.6080   235.2620   250.8570 h1         1 YRB       0.093700
     57 H2         369.1190   238.0370   251.7760 hn         1 YRB       0.356500
     58 H3         369.1060   235.3200   248.2050 hn         1 YRB       0.335500
     59 H4         371.6500   235.0480   249.2770 ho         1 YRB       0.459000
     60 H5         370.5890   237.1710   249.5870 h1         1 YRB       0.060700
     61 H6         371.1550   237.1790   251.9730 hc         1 YRB       0.045700
     62 H7         373.4950   236.5770   251.8240 hc         1 YRB       0.036533
     63 H8         373.2060   235.5260   250.4280 hc         1 YRB       0.036533
     64 H9         372.9760   237.2840   250.2850 hc         1 YRB       0.036533
     65 H10        368.9820   239.6290   247.4050 hn         1 YRB       0.335500
     66 H11        371.8650   235.1600   253.2080 hc         1 YRB       0.036533
     67 H12        370.1690   235.0060   252.7260 hc         1 YRB       0.036533
     68 H13        371.4270   234.1230   251.8360 hc         1 YRB       0.036533
     69 H14        366.9550   236.9040   246.8640 h1         1 YRB       0.068700
     70 H15        366.2660   234.8100   245.5820 hc         1 YRB       0.051700
     71 H16        364.8370   233.7950   247.3430 hc         1 YRB       0.043200
     72 H17        365.7070   234.6810   248.5840 hc         1 YRB       0.043200
     73 H18        366.7690   232.5740   246.4290 hc         1 YRB       0.043033
     74 H19        368.2730   233.4060   246.0110 hc         1 YRB       0.043033
     75 H20        367.7930   233.2380   247.7150 hc         1 YRB       0.043033
     76 H21        363.5090   235.7430   247.9370 hc         1 YRB       0.035700
     77 H22        364.8650   236.8470   247.6680 hc         1 YRB       0.035700
     78 H23        364.1210   235.9990   246.2910 hc         1 YRB       0.035700
     79 H24        370.2510   237.0050   243.8630 h1         1 YRB       0.093700
     80 H25        369.3210   234.9060   242.9060 hc         1 YRB       0.049367
     81 H26        368.2320   235.8520   241.8700 hc         1 YRB       0.049367
     82 H27        369.9950   235.9590   241.6490 hc         1 YRB       0.049367
     83 H28        366.1050   236.6090   244.4440 h1         1 YRB       0.043700
     84 H29        366.7100   238.2010   244.9880 h1         1 YRB       0.043700
     85 H30        366.7600   237.7520   243.2640 h1         1 YRB       0.043700
     86 H31        369.2020   238.7550   245.3360 h1         1 YRB       0.106700
     87 H32        371.6170   238.9010   244.8860 h1         1 YRB       0.069700
     88 H33        371.1670   241.8260   245.2960 hc         1 YRB       0.060700
     89 H34        372.2470   241.4480   247.4740 hc         1 YRB       0.034867
     90 H35        373.5690   240.5390   246.6940 hc         1 YRB       0.034867
     91 H36        373.3550   242.2690   246.3720 hc         1 YRB       0.034867
     92 H37        373.1430   242.0390   243.8780 hc         1 YRB       0.034867
     93 H38        373.5490   240.3240   244.0880 hc         1 YRB       0.034867
     94 H39        372.1180   240.7860   243.1620 hc         1 YRB       0.034867
     95 H40        369.9390   241.7290   243.3000 h1         1 YRB       0.047700
     96 H41        370.0750   240.8290   241.7780 h1         1 YRB       0.047700
     97 H42        368.4610   241.2160   242.4390 h1         1 YRB       0.047700
     98 H43        367.4720   242.1460   247.6170 h1         1 YRB       0.081700
     99 H44        365.4110   240.8330   248.5790 hc         1 YRB       0.061700
    100 H45        366.1260   239.3990   247.9010 hc         1 YRB       0.061700
    101 H46        365.9720   240.4320   245.6010 hc         1 YRB       0.045700
    102 H47        364.3470   238.7800   246.2650 hc         1 YRB       0.035367
    103 H48        363.3610   239.9870   247.1110 hc         1 YRB       0.035367
    104 H49        363.5210   240.0440   245.3400 hc         1 YRB       0.035367
    105 H50        368.8630   241.5200   251.8350 h1         1 YRB       0.079700
    106 H51        367.6960   242.3920   253.8450 hc         1 YRB       0.050367
    107 H52        367.7990   243.6210   252.5760 hc         1 YRB       0.050367
    108 H53        366.2630   242.7640   252.8760 hc         1 YRB       0.050367
    109 H54        366.8100   243.8770   250.5100 h1         1 YRB       0.042700
    110 H55        366.3190   243.0950   249.0090 h1         1 YRB       0.042700
    111 H56        365.4710   242.6920   250.5190 h1         1 YRB       0.042700
    112 H57        366.3550   238.1550   253.8930 h1         1 YRB       0.105700
    113 H58        367.6650   238.1080   255.8770 hc         1 YRB       0.061200
    114 H59        367.7940   236.5030   255.1870 hc         1 YRB       0.061200
    115 H60        369.9970   239.4900   252.7760 h1         1 YRB       0.052700
    116 H61        369.4890   240.8800   253.7330 h1         1 YRB       0.052700
    117 H62        363.7690   243.9230   246.8590 hc         1 YRB       0.030367
    118 H63        362.9210   242.3710   246.9480 hc         1 YRB       0.030367
    119 H64        364.1780   242.7690   248.1380 hc         1 YRB       0.030367
    120 H65        365.8730   242.8420   246.2150 hc         1 YRB       0.041700
    121 H66        364.6090   242.3430   245.1170 hc         1 YRB       0.041700
    122 H67        370.0580   237.1070   254.2170 hc         1 YRB       0.051200
    123 H68        370.0160   237.2770   255.9730 hc         1 YRB       0.051200
    124 H69        371.0500   239.3020   254.9260 hc         1 YRB       0.047200
    125 H70        369.5720   239.7090   255.7870 hc         1 YRB       0.047200
    126 H71        371.9870   239.0750   247.1200 ho         1 YRB       0.461000
    127 C37        363.8940   242.8580   247.0850 c3         1 YRB      -0.088100
@<TRIPOS>BOND
     1     1     2 1   
     2     1     4 1   
     3     1     7 1   
     4     1    56 1   
     5     2    49 1   
     6     2    57 1   
     7     3     4 2   
     8     4     5 1   
     9     5    19 1   
    10     5    58 1   
    11     6     7 1   
    12     6    59 1   
    13     7    10 1   
    14     7    60 1   
    15     8    22 1   
    16     8    28 1   
    17     8    31 1   
    18     9    22 2   
    19    10    13 1   
    20    10    16 1   
    21    10    61 1   
    22    11    29 1   
    23    11    32 1   
    24    11    38 1   
    25    12    29 2   
    26    13    62 1   
    27    13    63 1   
    28    13    64 1   
    29    14    33 1   
    30    14    39 1   
    31    14    65 1   
    32    15    33 2   
    33    16    66 1   
    34    16    67 1   
    35    16    68 1   
    36    17    40 1   
    37    17    44 1   
    38    17    47 1   
    39    18    40 2   
    40    19    22 1   
    41    19    24 1   
    42    19    69 1   
    43    20    45 1   
    44    20    48 1   
    45    20    51 1   
    46    21    45 2   
    47    23    49 2   
    48    24    25 1   
    49    24    26 1   
    50    24    70 1   
    51    25    27 1   
    52    25    71 1   
    53    25    72 1   
    54    26    73 1   
    55    26    74 1   
    56    26    75 1   
    57    27    76 1   
    58    27    77 1   
    59    27    78 1   
    60    28    29 1   
    61    28    30 1   
    62    28    79 1   
    63    30    80 1   
    64    30    81 1   
    65    30    82 1   
    66    31    83 1   
    67    31    84 1   
    68    31    85 1   
    69    32    33 1   
    70    32    34 1   
    71    32    86 1   
    72    34    35 1   
    73    34    55 1   
    74    34    87 1   
    75    35    36 1   
    76    35    37 1   
    77    35    88 1   
    78    36    89 1   
    79    36    90 1   
    80    36    91 1   
    81    37    92 1   
    82    37    93 1   
    83    37    94 1   
    84    38    95 1   
    85    38    96 1   
    86    38    97 1   
    87    39    40 1   
    88    39    41 1   
    89    39    98 1   
    90    41    42 1   
    91    41    99 1   
    92    41   100 1   
    93    42    43 1   
    94    42    52 1   
    95    42   101 1   
    96    43   102 1   
    97    43   103 1   
    98    43   104 1   
    99    44    45 1   
   100    44    46 1   
   101    44   105 1   
   102    46   106 1   
   103    46   107 1   
   104    46   108 1   
   105    47   109 1   
   106    47   110 1   
   107    47   111 1   
   108    48    49 1   
   109    48    50 1   
   110    48   112 1   
   111    50    53 1   
   112    50   113 1   
   113    50   114 1   
   114    51    54 1   
   115    51   115 1   
   116    51   116 1   
   117    52   120 1   
   118    52   121 1   
   119    52   127 1   
   120    53    54 1   
   121    53   122 1   
   122    53   123 1   
   123    54   124 1   
   124    54   125 1   
   125    55   126 1   
   126   117   127 1   
   127   118   127 1   
   128   119   127 1   
@<TRIPOS>SUBSTRUCTURE
     1 YRB         1 TEMP              0 ****  ****    0 ROOT
