@<TRIPOS>MOLECULE
YRC
   60    65     1     0     0
SMALL
abcg2


@<TRIPOS>ATOM
      1 C11        -21.4230   -12.0230     8.5210 ca         1 YRC       0.083200
      2 C13        -19.9630   -11.3540     6.6970 ca         1 YRC      -0.046000
      3 C15        -19.8850   -13.0200     4.7060 c          1 YRC       0.586600
      4 C18        -21.4090   -14.5610     5.6330 c5         1 YRC       0.151300
      5 C19        -21.2120   -13.4160     6.5810 ca         1 YRC      -0.100300
      6 C23        -21.3590   -14.6810    12.2560 ca         1 YRC      -0.168000
      7 C24        -21.9450   -14.0710    13.3780 ca         1 YRC      -0.110000
      8 C26        -25.2860   -13.5050    14.4610 c5         1 YRC       0.086000
      9 C01        -22.6360   -12.6030    15.8620 c3         1 YRC      -0.094100
     10 C02        -23.1400   -12.1220    14.5080 c3         1 YRC       0.188000
     11 C03        -22.4900   -12.8020    13.3220 ca         1 YRC      -0.133300
     12 C04        -22.4400   -12.1610    12.0760 ca         1 YRC      -0.056200
     13 C06        -22.5860   -10.6900    10.3910 cc         1 YRC      -0.047300
     14 C07        -23.0430    -9.3830     9.7790 c          1 YRC       0.720200
     15 C10        -21.9590   -11.8000     9.8670 cd         1 YRC      -0.159400
     16 C12        -20.5200   -11.1190     7.9410 ca         1 YRC      -0.080000
     17 C14        -20.3210   -12.5140     6.0260 ca         1 YRC      -0.189600
     18 C20        -21.7670   -13.1870     7.8260 ca         1 YRC      -0.111000
     19 C21        -21.8590   -12.7530    10.9340 ca         1 YRC      -0.085800
     20 C22        -21.3060   -14.0350    11.0390 ca         1 YRC      -0.064000
     21 C27        -26.7330   -13.0370    14.4740 cy         1 YRC       0.137000
     22 C28        -27.8400   -13.8480    13.8010 cy         1 YRC      -0.077400
     23 C29        -28.7880   -13.4610    14.9540 cy         1 YRC      -0.079700
     24 C30        -29.6850   -14.5390    15.5170 c3         1 YRC       0.160800
     25 C32        -27.5500   -13.0500    15.7770 cy         1 YRC      -0.077400
     26 C34        -25.4010   -11.2540    14.0100 c          1 YRC       0.690100
     27 N05        -22.8630   -10.9220    11.7090 na         1 YRC      -0.190700
     28 N17        -20.5440   -14.1900     4.5370 ns         1 YRC      -0.528900
     29 N25        -24.5870   -12.2420    14.4310 n          1 YRC      -0.441800
     30 N31        -30.6420   -14.9810    14.5150 n8         1 YRC      -0.994200
     31 O08        -22.9300    -9.2660     8.5490 o          1 YRC      -0.692500
     32 O09        -23.5030    -8.5590    10.5940 o          1 YRC      -0.692500
     33 O16        -19.1000   -12.5050     3.9270 o          1 YRC      -0.574000
     34 O33        -26.6590   -11.7080    13.9330 os         1 YRC      -0.405100
     35 O35        -25.1100   -10.1120    13.7250 o          1 YRC      -0.528000
     36 H131       -19.2620   -10.6510     6.2630 ha         1 YRC       0.121000
     37 H182       -21.1130   -15.5150     6.0760 h1         1 YRC       0.044700
     38 H181       -22.4500   -14.6540     5.3130 h1         1 YRC       0.044700
     39 H231       -20.9390   -15.6730    12.3580 ha         1 YRC       0.092000
     40 H241       -21.9520   -14.6190    14.3120 ha         1 YRC       0.088000
     41 H262       -25.0450   -14.0940    15.3470 h1         1 YRC       0.060700
     42 H261       -25.0610   -14.1120    13.5760 h1         1 YRC       0.060700
     43 H011       -23.1110   -12.0270    16.6560 hc         1 YRC       0.037367
     44 H013       -22.8450   -13.6570    16.0420 hc         1 YRC       0.037367
     45 H012       -21.5590   -12.4590    15.9350 hc         1 YRC       0.037367
     46 H021       -22.9240   -11.0520    14.4510 h1         1 YRC       0.084700
     47 H121       -20.2460   -10.2290     8.4900 ha         1 YRC       0.134000
     48 H201       -22.4700   -13.8880     8.2590 ha         1 YRC       0.114000
     49 H221       -20.8400   -14.5110    10.1850 ha         1 YRC       0.107000
     50 H282       -28.1020   -13.5660    12.7810 hc         1 YRC       0.064200
     51 H281       -27.6010   -14.9140    13.8190 hc         1 YRC       0.064200
     52 H291       -29.3830   -12.5820    14.6870 hc         1 YRC       0.068700
     53 H301       -29.0670   -15.3970    15.8010 h1         1 YRC       0.024700
     54 H302       -30.1490   -14.1710    16.4440 h1         1 YRC       0.024700
     55 H322       -27.2190   -13.8560    16.4360 hc         1 YRC       0.064200
     56 H321       -27.5870   -12.1210    16.3480 hc         1 YRC       0.064200
     57 H051       -23.3860   -10.2680    12.2740 hn         1 YRC       0.390000
     58 H171       -20.4350   -14.7610     3.7150 hn         1 YRC       0.314500
     59 H312       -31.1960   -15.7430    14.8850 hn         1 YRC       0.390000
     60 H1         -31.2990   -14.2330    14.3250 hn         1 YRC       0.390000
@<TRIPOS>BOND
     1     1    15 1   
     2     1    16 ar  
     3     1    18 ar  
     4     2    16 ar  
     5     2    17 ar  
     6     2    36 1   
     7     3    17 1   
     8     3    28 1   
     9     3    33 2   
    10     4     5 1   
    11     4    28 1   
    12     4    37 1   
    13     4    38 1   
    14     5    17 ar  
    15     5    18 ar  
    16     6     7 ar  
    17     6    20 ar  
    18     6    39 1   
    19     7    11 ar  
    20     7    40 1   
    21     8    21 1   
    22     8    29 1   
    23     8    41 1   
    24     8    42 1   
    25     9    10 1   
    26     9    43 1   
    27     9    44 1   
    28     9    45 1   
    29    10    11 1   
    30    10    29 1   
    31    10    46 1   
    32    11    12 ar  
    33    12    19 ar  
    34    12    27 1   
    35    13    14 1   
    36    13    15 2   
    37    13    27 1   
    38    14    31 1   
    39    14    32 1   
    40    15    19 1   
    41    16    47 1   
    42    18    48 1   
    43    19    20 ar  
    44    20    49 1   
    45    21    22 1   
    46    21    25 1   
    47    21    34 1   
    48    22    23 1   
    49    22    50 1   
    50    22    51 1   
    51    23    24 1   
    52    23    25 1   
    53    23    52 1   
    54    24    30 1   
    55    24    53 1   
    56    24    54 1   
    57    25    55 1   
    58    25    56 1   
    59    26    29 1   
    60    26    34 1   
    61    26    35 2   
    62    27    57 1   
    63    28    58 1   
    64    30    59 1   
    65    30    60 1   
@<TRIPOS>SUBSTRUCTURE
     1 YRC         1 TEMP              0 ****  ****    0 ROOT
