@<TRIPOS>MOLECULE
YRC
   60    65     1     0     0
SMALL
No Charge or Current Charge


@<TRIPOS>ATOM
      1 C11        -21.4590   -12.0060     8.3870 ca         1 YRC       0.083200
      2 C13        -20.0360   -11.0370     6.6230 ca         1 YRC      -0.046000
      3 C15        -19.4250   -12.6910     4.6990 c          1 YRC       0.586600
      4 C18        -20.6010   -14.5410     5.5680 c5         1 YRC       0.151300
      5 C19        -20.7510   -13.3520     6.4910 ca         1 YRC      -0.100300
      6 C23        -21.2860   -14.7620    12.0340 ca         1 YRC      -0.168000
      7 C24        -21.9110   -14.2130    13.1760 ca         1 YRC      -0.110000
      8 C26        -25.3390   -13.8000    14.5790 c5         1 YRC       0.086000
      9 C01        -22.5800   -12.7100    15.6920 c3         1 YRC      -0.094100
     10 C02        -23.2130   -12.2990    14.3420 c3         1 YRC       0.188000
     11 C03        -22.5530   -12.9500    13.1170 ca         1 YRC      -0.133300
     12 C04        -22.5660   -12.3040    11.8640 ca         1 YRC      -0.056200
     13 C06        -22.8700   -10.7630    10.1750 cc         1 YRC      -0.047300
     14 C07        -23.3490    -9.5470     9.4380 c          1 YRC       0.720200
     15 C10        -22.1740   -11.8790     9.6770 cd         1 YRC      -0.159400
     16 C12        -20.7400   -10.9120     7.8380 ca         1 YRC      -0.080000
     17 C14        -20.0630   -12.2770     5.9720 ca         1 YRC      -0.189600
     18 C20        -21.4550   -13.2430     7.6990 ca         1 YRC      -0.111000
     19 C21        -21.9760   -12.8420    10.7520 ca         1 YRC      -0.085800
     20 C22        -21.3010   -14.0720    10.8060 ca         1 YRC      -0.064000
     21 C27        -26.8100   -13.2800    14.6260 cy         1 YRC       0.137000
     22 C28        -28.0090   -14.2170    14.2440 cy         1 YRC      -0.077400
     23 C29        -28.8770   -13.3770    15.2420 cy         1 YRC      -0.079700
     24 C30        -30.0370   -14.0660    15.9790 c3         1 YRC       0.160800
     25 C32        -27.5340   -13.1520    16.0140 cy         1 YRC      -0.077400
     26 C34        -25.5360   -11.5370    13.8620 c          1 YRC       0.690100
     27 N05        -23.1130   -11.0780    11.5280 na         1 YRC      -0.190700
     28 N17        -19.7510   -14.0130     4.4830 ns         1 YRC      -0.528900
     29 N25        -24.6750   -12.5090    14.3390 n          1 YRC      -0.441800
     30 N31        -31.1830   -14.4440    15.1350 n8         1 YRC      -0.994200
     31 O08        -23.2390    -9.4670     8.2230 o          1 YRC      -0.692500
     32 O09        -23.9080    -8.6800    10.0970 o          1 YRC      -0.692500
     33 O16        -18.7350   -12.0060     3.9620 o          1 YRC      -0.574000
     34 O33        -26.7920   -12.0390    13.9030 os         1 YRC      -0.405100
     35 O35        -25.2260   -10.4290    13.4520 o          1 YRC      -0.528000
     36 H131       -19.4820   -10.1970     6.2080 ha         1 YRC       0.121000
     37 H182       -20.1240   -15.3820     6.0880 h1         1 YRC       0.044700
     38 H181       -21.5790   -14.8740     5.1970 h1         1 YRC       0.044700
     39 H231       -20.7820   -15.7230    12.1050 ha         1 YRC       0.092000
     40 H241       -21.8800   -14.7780    14.1030 ha         1 YRC       0.088000
     41 H262       -25.0130   -14.2710    15.5150 h1         1 YRC       0.060700
     42 H261       -25.1520   -14.4980    13.7520 h1         1 YRC       0.060700
     43 H011       -23.0100   -12.1140    16.5060 hc         1 YRC       0.037367
     44 H013       -22.7560   -13.7660    15.9210 hc         1 YRC       0.037367
     45 H012       -21.4980   -12.5320    15.6770 hc         1 YRC       0.037367
     46 H021       -23.0250   -11.2200    14.2650 h1         1 YRC       0.084700
     47 H121       -20.7020    -9.9670     8.3720 ha         1 YRC       0.134000
     48 H201       -22.0150   -14.0930     8.0790 ha         1 YRC       0.114000
     49 H221       -20.7930   -14.4900     9.9420 ha         1 YRC       0.107000
     50 H282       -28.3220   -14.1860    13.1950 hc         1 YRC       0.064200
     51 H281       -27.8700   -15.2660    14.5320 hc         1 YRC       0.064200
     52 H291       -29.2700   -12.4540    14.7980 hc         1 YRC       0.068700
     53 H301       -29.6500   -14.9740    16.4620 h1         1 YRC       0.024700
     54 H302       -30.3930   -13.3860    16.7650 h1         1 YRC       0.024700
     55 H322       -27.2800   -13.9440    16.7290 hc         1 YRC       0.064200
     56 H321       -27.4280   -12.1870    16.5200 hc         1 YRC       0.064200
     57 H051       -23.6780   -10.5040    12.1500 hn         1 YRC       0.390000
     58 H171       -19.4170   -14.5030     3.6620 hn         1 YRC       0.314500
     59 H312       -31.9240   -14.8310    15.7320 hn         1 YRC       0.390000
     60 H1         -31.6050   -13.5920    14.7450 hn         1 YRC       0.390000
@<TRIPOS>BOND
     1     1    15 1   
     2     1    16 ar  
     3     1    18 ar  
     4     2    16 ar  
     5     2    17 ar  
     6     2    36 1   
     7     3    17 1   
     8     3    28 1   
     9     3    33 2   
    10     4     5 1   
    11     4    28 1   
    12     4    37 1   
    13     4    38 1   
    14     5    17 ar  
    15     5    18 ar  
    16     6     7 ar  
    17     6    20 ar  
    18     6    39 1   
    19     7    11 ar  
    20     7    40 1   
    21     8    21 1   
    22     8    29 1   
    23     8    41 1   
    24     8    42 1   
    25     9    10 1   
    26     9    43 1   
    27     9    44 1   
    28     9    45 1   
    29    10    11 1   
    30    10    29 1   
    31    10    46 1   
    32    11    12 ar  
    33    12    19 ar  
    34    12    27 1   
    35    13    14 1   
    36    13    15 2   
    37    13    27 1   
    38    14    31 1   
    39    14    32 1   
    40    15    19 1   
    41    16    47 1   
    42    18    48 1   
    43    19    20 ar  
    44    20    49 1   
    45    21    22 1   
    46    21    25 1   
    47    21    34 1   
    48    22    23 1   
    49    22    50 1   
    50    22    51 1   
    51    23    24 1   
    52    23    25 1   
    53    23    52 1   
    54    24    30 1   
    55    24    53 1   
    56    24    54 1   
    57    25    55 1   
    58    25    56 1   
    59    26    29 1   
    60    26    34 1   
    61    26    35 2   
    62    27    57 1   
    63    28    58 1   
    64    30    59 1   
    65    30    60 1   
@<TRIPOS>SUBSTRUCTURE
     1 YRC         1 TEMP              0 ****  ****    0 ROOT
