@<TRIPOS>MOLECULE
YRE
   90    94     1     0     0
SMALL
No Charge or Current Charge


@<TRIPOS>ATOM
      1 C10        188.5090   146.0390   150.8170 c5         1 YRE      -0.081400
      2 C11        189.7690   146.4460   151.6390 c5         1 YRE      -0.096900
      3 C13        186.9960   148.6520   158.1250 c3         1 YRE       0.045700
      4 C15        184.8040   148.8000   159.4040 c          1 YRE       0.596100
      5 C16        183.6090   147.9420   159.9140 c3         1 YRE       0.046700
      6 C17        182.9420   147.1030   158.7750 c3         1 YRE      -0.038100
      7 C02        186.9170   148.3210   156.6040 c          1 YRE       0.587100
      8 C04        187.4070   149.2260   154.2930 c3         1 YRE       0.031700
      9 C05        188.7250   148.7430   153.6190 c          1 YRE       0.574100
     10 C07        189.7920   147.9960   151.5350 c5         1 YRE       0.111700
     11 C08        189.4800   148.1960   150.0290 c5         1 YRE      -0.096900
     12 C09        188.3860   147.1280   149.7010 c5         1 YRE      -0.081400
     13 C18        182.0640   147.8510   157.7660 ca         1 YRE      -0.048300
     14 C19        182.5740   148.9010   156.9690 ca         1 YRE      -0.176000
     15 C20        181.7350   149.5690   156.0470 ca         1 YRE       0.140100
     16 C22        183.4250   151.2910   155.4340 c3         1 YRE       0.162600
     17 C23        184.4910   150.5490   154.5960 c3         1 YRE      -0.112400
     18 C24        185.8350   151.3160   154.5700 c3         1 YRE      -0.075400
     19 C25        186.9710   150.6240   153.7720 c3         1 YRE      -0.078400
     20 C26        180.3980   149.1660   155.9090 ca         1 YRE      -0.143000
     21 C27        179.8880   148.1150   156.6860 ca         1 YRE      -0.082000
     22 C28        180.7180   147.4640   157.6100 ca         1 YRE      -0.147000
     23 C30        182.9920   148.9590   162.1130 c          1 YRE       0.561000
     24 C31        181.8310   149.7860   162.6510 c5         1 YRE      -0.164400
     25 C32        181.4130   150.6100   161.4090 c5         1 YRE      -0.094400
     26 C33        181.5350   149.5350   160.2850 c5         1 YRE       0.104000
     27 C39        190.9630   148.7480   160.3840 c6         1 YRE       0.140800
     28 C40        192.3090   148.3080   161.0530 c6         1 YRE       0.154100
     29 C42        192.5020   146.4300   159.5500 c6         1 YRE       0.154100
     30 C43        191.1660   146.8200   158.8320 c6         1 YRE       0.140800
     31 N03        187.5320   149.2280   155.7680 ns         1 YRE      -0.487900
     32 N06        188.6140   148.4970   152.2620 ns         1 YRE      -0.491900
     33 N14        185.8130   148.0770   158.7980 ns         1 YRE      -0.494900
     34 N29        182.6440   148.6850   160.7860 n          1 YRE      -0.402800
     35 N38        190.8330   148.2750   158.9680 n3         1 YRE      -0.733600
     36 O01        186.3150   147.3480   156.1660 o          1 YRE      -0.610100
     37 O12        189.7770   148.5930   154.2330 o          1 YRE      -0.613100
     38 O21        182.1500   150.6390   155.2770 os         1 YRE      -0.352100
     39 O34        184.0870   148.7440   162.6140 o          1 YRE      -0.561000
     40 O35        184.8540   150.0200   159.4970 o          1 YRE      -0.601100
     41 O41        193.1570   147.5860   160.1270 os         1 YRE      -0.437000
     42 H1         187.6140   146.0270   151.4490 hc         1 YRE       0.042200
     43 H2         188.6080   145.0300   150.3980 hc         1 YRE       0.042200
     44 H3         190.6770   146.0200   151.1950 hc         1 YRE       0.056950
     45 H4         189.7270   146.0890   152.6740 hc         1 YRE       0.056950
     46 H5         186.9780   149.7450   158.2260 h1         1 YRE       0.076700
     47 H6         184.0900   147.1960   160.5610 h1         1 YRE       0.086700
     48 H7         182.3420   146.3280   159.2670 hc         1 YRE       0.059700
     49 H8         183.7120   146.5470   158.2280 hc         1 YRE       0.059700
     50 H9         186.6310   148.5060   154.0030 h1         1 YRE       0.084700
     51 H10        190.7410   148.4540   151.8490 h1         1 YRE       0.076700
     52 H11        190.3810   148.0130   149.4320 hc         1 YRE       0.056950
     53 H12        189.1550   149.2170   149.7950 hc         1 YRE       0.056950
     54 H13        187.3830   147.5720   149.7040 hc         1 YRE       0.042200
     55 H14        188.5350   146.7040   148.7020 hc         1 YRE       0.042200
     56 H15        183.6120   149.1890   157.0710 ha         1 YRE       0.134000
     57 H16        183.7230   151.3540   156.4880 h1         1 YRE       0.052700
     58 H17        183.3490   152.3190   155.0550 h1         1 YRE       0.052700
     59 H18        184.1250   150.4320   153.5690 hc         1 YRE       0.057200
     60 H19        184.6410   149.5430   155.0010 hc         1 YRE       0.057200
     61 H20        186.1670   151.5020   155.6000 hc         1 YRE       0.048700
     62 H21        185.6630   152.3060   154.1280 hc         1 YRE       0.048700
     63 H22        187.8450   151.2880   153.7890 hc         1 YRE       0.057700
     64 H23        186.6700   150.5420   152.7200 hc         1 YRE       0.057700
     65 H24        179.7520   149.6780   155.2020 ha         1 YRE       0.126000
     66 H25        178.8500   147.8090   156.5750 ha         1 YRE       0.114000
     67 H26        180.3090   146.6520   158.2080 ha         1 YRE       0.111000
     68 H27        182.1160   150.3680   163.5330 hc         1 YRE       0.076200
     69 H28        181.0100   149.1030   162.8970 hc         1 YRE       0.076200
     70 H29        182.1090   151.4390   161.2340 hc         1 YRE       0.059200
     71 H30        180.4040   151.0330   161.4850 hc         1 YRE       0.059200
     72 H31        181.7610   150.0000   159.3170 h1         1 YRE       0.060700
     73 H32        180.6130   148.9460   160.1860 h1         1 YRE       0.060700
     74 H33        188.2020   148.3130   159.8800 hc         1 YRE       0.056200
     75 H34        188.2980   147.0150   158.6940 hc         1 YRE       0.056200
     76 H35        189.6900   148.4450   157.2000 h1         1 YRE       0.060700
     77 H36        189.5230   149.8020   158.3110 h1         1 YRE       0.060700
     78 H38        190.1400   148.3580   160.9990 h1         1 YRE       0.038950
     79 H39        192.8500   149.1920   161.4160 h1         1 YRE       0.045450
     80 H40        192.0970   147.6650   161.9200 h1         1 YRE       0.045450
     81 H41        192.2940   145.7010   160.3470 h1         1 YRE       0.045450
     82 H42        193.1850   145.9550   158.8320 h1         1 YRE       0.045450
     83 H43        191.2450   146.5500   157.7690 h1         1 YRE       0.038950
     84 H44        190.3630   146.2010   159.2560 h1         1 YRE       0.038950
     85 H45        188.0280   149.9960   156.2050 hn         1 YRE       0.331500
     86 H46        187.7100   148.6410   151.8300 hn         1 YRE       0.320500
     87 H47        185.6810   147.0740   158.7370 hn         1 YRE       0.323500
     88 C36        188.2770   148.1050   158.8070 c3         1 YRE      -0.130400
     89 C37        189.5990   148.7070   158.2640 c3         1 YRE       0.181800
     90 H37        190.8930   149.8450   160.4230 h1         1 YRE       0.038950
@<TRIPOS>BOND
     1     1     2 1   
     2     1    12 1   
     3     1    42 1   
     4     1    43 1   
     5     2    10 1   
     6     2    44 1   
     7     2    45 1   
     8     3     7 1   
     9     3    33 1   
    10     3    46 1   
    11     3    88 1   
    12     4     5 1   
    13     4    33 1   
    14     4    40 2   
    15     5     6 1   
    16     5    34 1   
    17     5    47 1   
    18     6    13 1   
    19     6    48 1   
    20     6    49 1   
    21     7    31 1   
    22     7    36 2   
    23     8     9 1   
    24     8    19 1   
    25     8    31 1   
    26     8    50 1   
    27     9    32 1   
    28     9    37 2   
    29    10    11 1   
    30    10    32 1   
    31    10    51 1   
    32    11    12 1   
    33    11    52 1   
    34    11    53 1   
    35    12    54 1   
    36    12    55 1   
    37    13    14 ar  
    38    13    22 ar  
    39    14    15 ar  
    40    14    56 1   
    41    15    20 ar  
    42    15    38 1   
    43    16    17 1   
    44    16    38 1   
    45    16    57 1   
    46    16    58 1   
    47    17    18 1   
    48    17    59 1   
    49    17    60 1   
    50    18    19 1   
    51    18    61 1   
    52    18    62 1   
    53    19    63 1   
    54    19    64 1   
    55    20    21 ar  
    56    20    65 1   
    57    21    22 ar  
    58    21    66 1   
    59    22    67 1   
    60    23    24 1   
    61    23    34 1   
    62    23    39 2   
    63    24    25 1   
    64    24    68 1   
    65    24    69 1   
    66    25    26 1   
    67    25    70 1   
    68    25    71 1   
    69    26    34 1   
    70    26    72 1   
    71    26    73 1   
    72    27    28 1   
    73    27    35 1   
    74    27    78 1   
    75    27    90 1   
    76    28    41 1   
    77    28    79 1   
    78    28    80 1   
    79    29    30 1   
    80    29    41 1   
    81    29    81 1   
    82    29    82 1   
    83    30    35 1   
    84    30    83 1   
    85    30    84 1   
    86    31    85 1   
    87    32    86 1   
    88    33    87 1   
    89    35    89 1   
    90    74    88 1   
    91    75    88 1   
    92    76    89 1   
    93    77    89 1   
    94    88    89 1   
@<TRIPOS>SUBSTRUCTURE
     1 YRE         1 TEMP              0 ****  ****    0 ROOT
