@<TRIPOS>MOLECULE
YRE
   90    94     1     0     0
SMALL
abcg2


@<TRIPOS>ATOM
      1 C10        190.5410   146.6880   153.6730 c5         1 YRE      -0.081400
      2 C11        190.9590   148.1620   153.6300 c5         1 YRE      -0.096900
      3 C13        187.0880   148.8330   158.1060 c3         1 YRE       0.045700
      4 C15        184.8620   149.1530   159.0610 c          1 YRE       0.596100
      5 C16        183.7430   148.4290   159.8120 c3         1 YRE       0.046700
      6 C17        183.0360   147.3510   158.9620 c3         1 YRE      -0.038100
      7 C02        186.6470   148.8640   156.6420 c          1 YRE       0.587100
      8 C04        186.9630   150.0720   154.5150 c3         1 YRE       0.031700
      9 C05        188.3900   150.0360   153.9650 c          1 YRE       0.574100
     10 C07        190.0100   148.7920   152.6080 c5         1 YRE       0.111700
     11 C08        189.9480   147.7220   151.5220 c5         1 YRE      -0.096900
     12 C09        189.9430   146.3820   152.2800 c5         1 YRE      -0.081400
     13 C18        182.0180   147.7540   157.9240 ca         1 YRE      -0.048300
     14 C19        182.3130   148.6430   156.8910 ca         1 YRE      -0.176000
     15 C20        181.3510   148.9640   155.9350 ca         1 YRE       0.140100
     16 C22        182.5360   150.8510   155.0620 c3         1 YRE       0.162600
     17 C23        183.8790   150.4710   154.4620 c3         1 YRE      -0.112400
     18 C24        184.8980   151.5650   154.7610 c3         1 YRE      -0.075400
     19 C25        186.2610   151.3670   154.1090 c3         1 YRE      -0.078400
     20 C26        180.0950   148.3570   155.9850 ca         1 YRE      -0.143000
     21 C27        179.8100   147.4600   156.9970 ca         1 YRE      -0.082000
     22 C28        180.7580   147.1660   157.9700 ca         1 YRE      -0.147000
     23 C30        182.8510   149.4180   161.8460 c          1 YRE       0.561000
     24 C31        181.7950   150.4230   162.2450 c5         1 YRE      -0.164400
     25 C32        181.5410   151.2040   160.9640 c5         1 YRE      -0.094400
     26 C33        181.8590   150.1900   159.8670 c5         1 YRE       0.104000
     27 C39        191.3770   147.7250   158.7040 c6         1 YRE       0.140800
     28 C40        192.3460   146.6120   159.1050 c6         1 YRE       0.154100
     29 C42        191.7720   145.2110   157.3190 c6         1 YRE       0.154100
     30 C43        190.4080   145.8710   157.5190 c6         1 YRE       0.140800
     31 N03        187.0630   149.9370   155.9520 ns         1 YRE      -0.487900
     32 N06        188.6830   149.0070   153.1650 ns         1 YRE      -0.491900
     33 N14        185.9850   148.4240   158.9400 ns         1 YRE      -0.494900
     34 N29        182.8690   149.3450   160.4920 n          1 YRE      -0.402800
     35 N38        190.5950   147.3040   157.5530 n3         1 YRE      -0.733600
     36 O01        186.0120   147.9390   156.1620 o          1 YRE      -0.610100
     37 O12        189.1970   150.9010   154.2800 o          1 YRE      -0.613100
     38 O21        181.5430   149.8440   154.9300 os         1 YRE      -0.352100
     39 O34        183.5550   148.7680   162.6000 o          1 YRE      -0.561000
     40 O35        184.7610   150.2830   158.6100 o          1 YRE      -0.601100
     41 O41        192.8100   145.9170   157.9740 os         1 YRE      -0.437000
     42 H1         189.7900   146.5310   154.4500 hc         1 YRE       0.042200
     43 H2         191.3800   146.0370   153.9180 hc         1 YRE       0.042200
     44 H3         191.9820   148.2620   153.2570 hc         1 YRE       0.056950
     45 H4         190.9230   148.6450   154.6070 hc         1 YRE       0.056950
     46 H5         187.4340   149.8230   158.4180 h1         1 YRE       0.076700
     47 H6         184.2380   147.8630   160.6060 h1         1 YRE       0.086700
     48 H7         182.5480   146.6740   159.6650 hc         1 YRE       0.059700
     49 H8         183.8180   146.7560   158.4800 hc         1 YRE       0.059700
     50 H9         186.3950   149.2160   154.1490 h1         1 YRE       0.084700
     51 H10        190.3840   149.7430   152.2270 h1         1 YRE       0.076700
     52 H11        190.8470   147.8090   150.9100 hc         1 YRE       0.056950
     53 H12        189.0940   147.8460   150.8530 hc         1 YRE       0.056950
     54 H13        188.9290   145.9900   152.3730 hc         1 YRE       0.042200
     55 H14        190.5180   145.6270   151.7440 hc         1 YRE       0.042200
     56 H15        183.2960   149.0900   156.8400 ha         1 YRE       0.134000
     57 H16        182.6560   151.1290   156.1160 h1         1 YRE       0.052700
     58 H17        182.1400   151.7270   154.5440 h1         1 YRE       0.052700
     59 H18        183.7750   150.3350   153.3810 hc         1 YRE       0.057200
     60 H19        184.2140   149.5150   154.8690 hc         1 YRE       0.057200
     61 H20        185.0200   151.6570   155.8440 hc         1 YRE       0.048700
     62 H21        184.5020   152.5270   154.4230 hc         1 YRE       0.048700
     63 H22        186.9010   152.2160   154.3600 hc         1 YRE       0.057700
     64 H23        186.1560   151.3670   153.0200 hc         1 YRE       0.057700
     65 H24        179.3520   148.6030   155.2370 ha         1 YRE       0.126000
     66 H25        178.8340   146.9940   157.0380 ha         1 YRE       0.114000
     67 H26        180.5160   146.4730   158.7670 ha         1 YRE       0.111000
     68 H27        182.1270   151.0300   163.0860 hc         1 YRE       0.076200
     69 H28        180.9050   149.8740   162.5700 hc         1 YRE       0.076200
     70 H29        182.2270   152.0500   160.8990 hc         1 YRE       0.059200
     71 H30        180.5260   151.5880   160.8820 hc         1 YRE       0.059200
     72 H31        182.2360   150.6560   158.9600 h1         1 YRE       0.060700
     73 H32        180.9740   149.6070   159.6010 h1         1 YRE       0.060700
     74 H33        188.5760   147.8830   159.3070 hc         1 YRE       0.056200
     75 H34        187.8510   146.8250   158.1050 hc         1 YRE       0.056200
     76 H35        189.0850   147.8950   156.2850 h1         1 YRE       0.060700
     77 H36        189.6970   149.1480   157.3490 h1         1 YRE       0.060700
     78 H38        190.7630   147.9680   159.5840 h1         1 YRE       0.038950
     79 H39        193.2140   147.0360   159.6110 h1         1 YRE       0.045450
     80 H40        191.8660   145.9280   159.8170 h1         1 YRE       0.045450
     81 H41        191.7290   144.1700   157.6640 h1         1 YRE       0.045450
     82 H42        192.0240   145.1980   156.2560 h1         1 YRE       0.045450
     83 H43        189.7640   145.6080   156.6760 h1         1 YRE       0.038950
     84 H44        189.9110   145.4780   158.4190 h1         1 YRE       0.038950
     85 H45        187.5680   150.6590   156.4440 hn         1 YRE       0.331500
     86 H46        187.9620   148.3330   152.9620 hn         1 YRE       0.320500
     87 H47        186.0050   147.4890   159.3190 hn         1 YRE       0.323500
     88 C36        188.2370   147.8350   158.2690 c3         1 YRE      -0.130400
     89 C37        189.4090   148.0920   157.3120 c3         1 YRE       0.181800
     90 H37        191.9220   148.6370   158.4420 h1         1 YRE       0.038950
@<TRIPOS>BOND
     1     1     2 1   
     2     1    12 1   
     3     1    42 1   
     4     1    43 1   
     5     2    10 1   
     6     2    44 1   
     7     2    45 1   
     8     3     7 1   
     9     3    33 1   
    10     3    46 1   
    11     3    88 1   
    12     4     5 1   
    13     4    33 1   
    14     4    40 2   
    15     5     6 1   
    16     5    34 1   
    17     5    47 1   
    18     6    13 1   
    19     6    48 1   
    20     6    49 1   
    21     7    31 1   
    22     7    36 2   
    23     8     9 1   
    24     8    19 1   
    25     8    31 1   
    26     8    50 1   
    27     9    32 1   
    28     9    37 2   
    29    10    11 1   
    30    10    32 1   
    31    10    51 1   
    32    11    12 1   
    33    11    52 1   
    34    11    53 1   
    35    12    54 1   
    36    12    55 1   
    37    13    14 ar  
    38    13    22 ar  
    39    14    15 ar  
    40    14    56 1   
    41    15    20 ar  
    42    15    38 1   
    43    16    17 1   
    44    16    38 1   
    45    16    57 1   
    46    16    58 1   
    47    17    18 1   
    48    17    59 1   
    49    17    60 1   
    50    18    19 1   
    51    18    61 1   
    52    18    62 1   
    53    19    63 1   
    54    19    64 1   
    55    20    21 ar  
    56    20    65 1   
    57    21    22 ar  
    58    21    66 1   
    59    22    67 1   
    60    23    24 1   
    61    23    34 1   
    62    23    39 2   
    63    24    25 1   
    64    24    68 1   
    65    24    69 1   
    66    25    26 1   
    67    25    70 1   
    68    25    71 1   
    69    26    34 1   
    70    26    72 1   
    71    26    73 1   
    72    27    28 1   
    73    27    35 1   
    74    27    78 1   
    75    27    90 1   
    76    28    41 1   
    77    28    79 1   
    78    28    80 1   
    79    29    30 1   
    80    29    41 1   
    81    29    81 1   
    82    29    82 1   
    83    30    35 1   
    84    30    83 1   
    85    30    84 1   
    86    31    85 1   
    87    32    86 1   
    88    33    87 1   
    89    35    89 1   
    90    74    88 1   
    91    75    88 1   
    92    76    89 1   
    93    77    89 1   
    94    88    89 1   
@<TRIPOS>SUBSTRUCTURE
     1 YRE         1 TEMP              0 ****  ****    0 ROOT
