@<TRIPOS>MOLECULE
YRF
   65    69     1     0     0
SMALL
No Charge or Current Charge


@<TRIPOS>ATOM
      1 C10        -22.0200   -11.5060     9.8410 cc         1 YRF      -0.164400
      2 C11        -21.4300   -11.8180     8.5430 ca         1 YRF       0.104200
      3 C12        -20.2990   -11.1230     8.0850 ca         1 YRF      -0.114000
      4 C13        -19.7170   -11.4510     6.8510 ca         1 YRF       0.187000
      5 C15        -20.2570   -12.4910     6.0510 ca         1 YRF       0.134000
      6 C01        -23.1670   -11.7610    15.7770 c3         1 YRF      -0.101100
      7 C02        -23.6550   -11.4150    14.3510 c3         1 YRF       0.190000
      8 C03        -22.9520   -12.2220    13.2480 ca         1 YRF      -0.120300
      9 C04        -22.7340   -11.6630    11.9700 ca         1 YRF      -0.054200
     10 C06        -22.6730   -10.3070    10.1570 cd         1 YRF      -0.042300
     11 C07        -22.9290    -9.1260     9.2590 c          1 YRF       0.720200
     12 C21        -21.3710   -13.2040     6.5330 ca         1 YRF      -0.091000
     13 C22        -21.9520   -12.8690     7.7690 ca         1 YRF      -0.134000
     14 C23        -22.0900   -12.3600    10.9850 ca         1 YRF      -0.081800
     15 C24        -21.6220   -13.6650    11.1700 ca         1 YRF      -0.065000
     16 C25        -21.8420   -14.2650    12.4240 ca         1 YRF      -0.164000
     17 C26        -22.5020   -13.5530    13.4520 ca         1 YRF      -0.110000
     18 C28        -25.9330   -12.6410    14.7060 c5         1 YRF       0.075000
     19 C29        -27.2700   -12.3420    13.9640 c5         1 YRF       0.156300
     20 C30        -28.5560   -12.5080    14.8160 c3         1 YRF       0.157800
     21 C32        -30.1060   -14.2090    15.9890 cy         1 YRF       0.126300
     22 C33        -29.3810   -15.5760    16.2910 cy         1 YRF       0.132500
     23 C35        -28.0800   -14.6970    16.1460 cy         1 YRF       0.126300
     24 C37        -25.8610   -10.5720    13.5380 c          1 YRF       0.693100
     25 F14        -18.6080   -10.7790     6.4580 f          1 YRF      -0.182000
     26 N05        -23.1090   -10.4070    11.5050 na         1 YRF      -0.189700
     27 N16        -19.7020   -12.8630     4.8150 nu         1 YRF      -0.875100
     28 N27        -25.1240   -11.5160    14.2350 n          1 YRF      -0.444800
     29 N31        -28.8910   -13.8970    15.1760 nq         1 YRF      -0.711600
     30 N34        -29.6470   -16.2600    17.5790 n8         1 YRF      -0.990200
     31 O08        -23.5190    -8.1710     9.7450 o          1 YRF      -0.692000
     32 O09        -22.5680    -9.1440     8.0910 o          1 YRF      -0.692000
     33 O36        -27.1600   -10.9720    13.4920 os         1 YRF      -0.420100
     34 O38        -25.4280    -9.5380    13.0520 o          1 YRF      -0.526000
     35 S17        -20.0220   -12.1150     3.3630 s6         1 YRF       1.178100
     36 H121       -19.8690   -10.3300     8.6890 ha         1 YRF       0.155000
     37 H183       -20.0660    -9.9680     4.3260 h1         1 YRF       0.106367
     38 H182       -18.4110   -10.4540     3.7820 h1         1 YRF       0.106367
     39 H181       -19.6460    -9.9350     2.5700 h1         1 YRF       0.106367
     40 H011       -23.5980   -11.0600    16.5020 hc         1 YRF       0.038367
     41 H012       -23.4600   -12.7730    16.0770 hc         1 YRF       0.038367
     42 H013       -22.0750   -11.6820    15.8380 hc         1 YRF       0.038367
     43 H021       -23.3750   -10.3630    14.2060 h1         1 YRF       0.083700
     44 H211       -21.7950   -14.0160     5.9470 ha         1 YRF       0.109000
     45 H221       -22.8140   -13.4260     8.1290 ha         1 YRF       0.120000
     46 H241       -21.1120   -14.2000    10.3720 ha         1 YRF       0.107000
     47 H251       -21.5010   -15.2820    12.6030 ha         1 YRF       0.093000
     48 H261       -22.6580   -14.0510    14.4050 ha         1 YRF       0.088000
     49 H281       -25.5070   -13.6100    14.4160 h1         1 YRF       0.052700
     50 H1         -26.0500   -12.6120    15.7970 h1         1 YRF       0.052700
     51 H2         -27.3540   -12.9900    13.0810 h1         1 YRF       0.087700
     52 H301       -28.4560   -11.9100    15.7330 h1         1 YRF       0.049200
     53 H302       -29.3960   -12.0950    14.2410 h1         1 YRF       0.049200
     54 H331       -29.4860   -16.2770    15.4520 h1         1 YRF       0.081700
     55 H351       -27.2140   -15.2240    15.7300 h1         1 YRF       0.049450
     56 H352       -27.7970   -14.1650    17.0630 h1         1 YRF       0.049450
     57 H051       -23.6910    -9.7260    11.9890 hn         1 YRF       0.392000
     58 H161       -19.8770   -13.8250     4.5560 hn         1 YRF       0.483000
     59 H341       -28.9400   -16.9890    17.7400 hn         1 YRF       0.399000
     60 H4         -29.4970   -15.6080    18.3580 hn         1 YRF       0.399000
     61 H321       -30.2480   -13.5750    16.8740 h1         1 YRF       0.049450
     62 C18        -19.4750   -10.4300     3.5300 c3         1 YRF      -0.334100
     63 O19        -19.1760   -12.8040     2.3880 o          1 YRF      -0.557000
     64 O20        -21.4780   -12.1390     3.2230 o          1 YRF      -0.557000
     65 H322       -31.0460   -14.3000    15.4330 h1         1 YRF       0.049450
@<TRIPOS>BOND
     1     1     2 1   
     2     1    10 2   
     3     1    14 1   
     4     2     3 ar  
     5     2    13 ar  
     6     3     4 ar  
     7     3    36 1   
     8     4     5 ar  
     9     4    25 1   
    10     5    12 ar  
    11     5    27 1   
    12     6     7 1   
    13     6    40 1   
    14     6    41 1   
    15     6    42 1   
    16     7     8 1   
    17     7    28 1   
    18     7    43 1   
    19     8     9 ar  
    20     8    17 ar  
    21     9    14 ar  
    22     9    26 1   
    23    10    11 1   
    24    10    26 1   
    25    11    31 1   
    26    11    32 1   
    27    12    13 ar  
    28    12    44 1   
    29    13    45 1   
    30    14    15 ar  
    31    15    16 ar  
    32    15    46 1   
    33    16    17 ar  
    34    16    47 1   
    35    17    48 1   
    36    18    19 1   
    37    18    28 1   
    38    18    49 1   
    39    18    50 1   
    40    19    20 1   
    41    19    33 1   
    42    19    51 1   
    43    20    29 1   
    44    20    52 1   
    45    20    53 1   
    46    21    22 1   
    47    21    29 1   
    48    21    61 1   
    49    21    65 1   
    50    22    23 1   
    51    22    30 1   
    52    22    54 1   
    53    23    29 1   
    54    23    55 1   
    55    23    56 1   
    56    24    28 1   
    57    24    33 1   
    58    24    34 2   
    59    26    57 1   
    60    27    35 1   
    61    27    58 1   
    62    30    59 1   
    63    30    60 1   
    64    35    62 1   
    65    35    63 2   
    66    35    64 2   
    67    37    62 1   
    68    38    62 1   
    69    39    62 1   
@<TRIPOS>SUBSTRUCTURE
     1 YRF         1 TEMP              0 ****  ****    0 ROOT
