@<TRIPOS>MOLECULE
YRF
   65    69     1     0     0
SMALL
abcg2


@<TRIPOS>ATOM
      1 C10        -22.0790   -11.5000     9.7320 cc         1 YRF      -0.164400
      2 C11        -21.3700   -11.7140     8.4670 ca         1 YRF       0.104200
      3 C12        -20.4540   -10.7790     7.9830 ca         1 YRF      -0.114000
      4 C13        -19.7480   -11.0450     6.8310 ca         1 YRF       0.187000
      5 C15        -19.9070   -12.2240     6.1100 ca         1 YRF       0.134000
      6 C01        -23.3350   -12.2630    15.6190 c3         1 YRF      -0.101100
      7 C02        -23.7130   -11.7640    14.2310 c3         1 YRF       0.190000
      8 C03        -23.0260   -12.5020    13.1000 ca         1 YRF      -0.120300
      9 C04        -22.8260   -11.8650    11.8670 ca         1 YRF      -0.054200
     10 C06        -22.7250   -10.3720    10.1970 cd         1 YRF      -0.042300
     11 C07        -23.0690    -9.0410     9.5630 c          1 YRF       0.720200
     12 C21        -20.8260   -13.1500     6.5920 ca         1 YRF      -0.091000
     13 C22        -21.5430   -12.9010     7.7500 ca         1 YRF      -0.134000
     14 C23        -22.1410   -12.4700    10.7900 ca         1 YRF      -0.081800
     15 C24        -21.6500   -13.7720    10.9480 ca         1 YRF      -0.065000
     16 C25        -21.8660   -14.4210    12.1450 ca         1 YRF      -0.164000
     17 C26        -22.5410   -13.7920    13.2060 ca         1 YRF      -0.110000
     18 C28        -26.0200   -12.8430    14.4550 c5         1 YRF       0.075000
     19 C29        -27.3920   -12.3260    13.9970 c5         1 YRF       0.156300
     20 C30        -28.5040   -12.4300    15.0250 c3         1 YRF       0.157800
     21 C32        -30.1140   -14.0330    16.0160 cy         1 YRF       0.126300
     22 C33        -29.4530   -15.2860    16.6060 cy         1 YRF       0.132500
     23 C35        -28.1250   -14.6490    16.1370 cy         1 YRF       0.126300
     24 C37        -25.8550   -10.6700    13.6810 c          1 YRF       0.693100
     25 F14        -18.8620   -10.1400     6.3940 f          1 YRF      -0.182000
     26 N05        -23.1610   -10.6080    11.4690 na         1 YRF      -0.189700
     27 N16        -19.1070   -12.4490     4.9610 nu         1 YRF      -0.875100
     28 N27        -25.1570   -11.7580    14.0500 n          1 YRF      -0.444800
     29 N31        -28.9010   -13.7970    15.2290 nq         1 YRF      -0.711600
     30 N34        -29.7220   -15.5790    17.9850 n8         1 YRF      -0.990200
     31 O08        -23.5710    -8.2080    10.3420 o          1 YRF      -0.692000
     32 O09        -22.8360    -8.9150     8.3500 o          1 YRF      -0.692000
     33 O36        -27.1660   -10.9410    13.6980 os         1 YRF      -0.420100
     34 O38        -25.4300    -9.5800    13.3610 o          1 YRF      -0.526000
     35 S17        -19.7900   -12.2570     3.4490 s6         1 YRF       1.178100
     36 H121       -20.2730    -9.8560     8.5150 ha         1 YRF       0.155000
     37 H183       -20.5290   -10.0770     4.0470 h1         1 YRF       0.106367
     38 H182       -18.8700   -10.0770     3.3760 h1         1 YRF       0.106367
     39 H181       -20.2800   -10.2810     2.3010 h1         1 YRF       0.106367
     40 H011       -23.8230   -11.6540    16.3800 hc         1 YRF       0.038367
     41 H012       -23.6150   -13.3020    15.7890 hc         1 YRF       0.038367
     42 H013       -22.2580   -12.1810    15.7580 hc         1 YRF       0.038367
     43 H021       -23.4030   -10.7180    14.1780 h1         1 YRF       0.083700
     44 H211       -20.9700   -14.0780     6.0560 ha         1 YRF       0.109000
     45 H221       -22.2580   -13.6370     8.0940 ha         1 YRF       0.120000
     46 H241       -21.1050   -14.2630    10.1520 ha         1 YRF       0.107000
     47 H251       -21.4960   -15.4290    12.2840 ha         1 YRF       0.093000
     48 H261       -22.6590   -14.3380    14.1330 ha         1 YRF       0.088000
     49 H281       -25.7520   -13.7820    13.9680 h1         1 YRF       0.052700
     50 H1         -25.9760   -12.9950    15.5370 h1         1 YRF       0.052700
     51 H2         -27.7050   -12.8220    13.0750 h1         1 YRF       0.087700
     52 H301       -28.1880   -11.9380    15.9610 h1         1 YRF       0.049200
     53 H302       -29.3700   -11.8790    14.6480 h1         1 YRF       0.049200
     54 H331       -29.6890   -16.1680    16.0080 h1         1 YRF       0.081700
     55 H351       -27.3730   -15.2870    15.6660 h1         1 YRF       0.049450
     56 H352       -27.6520   -14.0850    16.9550 h1         1 YRF       0.049450
     57 H051       -23.7150    -9.9370    11.9830 hn         1 YRF       0.392000
     58 H161       -18.5450   -13.2960     4.9890 hn         1 YRF       0.483000
     59 H341       -29.2200   -16.4090    18.2730 hn         1 YRF       0.399000
     60 H4         -29.3930   -14.8250    18.5760 hn         1 YRF       0.399000
     61 H321       -30.2750   -13.2730    16.7950 h1         1 YRF       0.049450
     62 C18        -19.8690   -10.4920     3.2880 c3         1 YRF      -0.334100
     63 O19        -18.8110   -12.7880     2.5120 o          1 YRF      -0.557000
     64 O20        -21.1500   -12.7720     3.4060 o          1 YRF      -0.557000
     65 H322       -31.0360   -14.1450    15.4400 h1         1 YRF       0.049450
@<TRIPOS>BOND
     1     1     2 1   
     2     1    10 2   
     3     1    14 1   
     4     2     3 ar  
     5     2    13 ar  
     6     3     4 ar  
     7     3    36 1   
     8     4     5 ar  
     9     4    25 1   
    10     5    12 ar  
    11     5    27 1   
    12     6     7 1   
    13     6    40 1   
    14     6    41 1   
    15     6    42 1   
    16     7     8 1   
    17     7    28 1   
    18     7    43 1   
    19     8     9 ar  
    20     8    17 ar  
    21     9    14 ar  
    22     9    26 1   
    23    10    11 1   
    24    10    26 1   
    25    11    31 1   
    26    11    32 1   
    27    12    13 ar  
    28    12    44 1   
    29    13    45 1   
    30    14    15 ar  
    31    15    16 ar  
    32    15    46 1   
    33    16    17 ar  
    34    16    47 1   
    35    17    48 1   
    36    18    19 1   
    37    18    28 1   
    38    18    49 1   
    39    18    50 1   
    40    19    20 1   
    41    19    33 1   
    42    19    51 1   
    43    20    29 1   
    44    20    52 1   
    45    20    53 1   
    46    21    22 1   
    47    21    29 1   
    48    21    61 1   
    49    21    65 1   
    50    22    23 1   
    51    22    30 1   
    52    22    54 1   
    53    23    29 1   
    54    23    55 1   
    55    23    56 1   
    56    24    28 1   
    57    24    33 1   
    58    24    34 2   
    59    26    57 1   
    60    27    35 1   
    61    27    58 1   
    62    30    59 1   
    63    30    60 1   
    64    35    62 1   
    65    35    63 2   
    66    35    64 2   
    67    37    62 1   
    68    38    62 1   
    69    39    62 1   
@<TRIPOS>SUBSTRUCTURE
     1 YRF         1 TEMP              0 ****  ****    0 ROOT
