@<TRIPOS>MOLECULE
YRG
   31    32     1     0     0
SMALL
No Charge or Current Charge


@<TRIPOS>ATOM
      1 CAK          1.6960     0.6740    -1.3240 ca         1 YRG      -0.172500
      2 CAI          3.0450     1.0040    -1.1010 ca         1 YRG      -0.071500
      3 CAP          3.6980     0.5340     0.0500 ca         1 YRG       0.053000
      4 ClAC         5.3850     0.9450     0.3330 cl         1 YRG      -0.258000
      5 CAJ          3.0060    -0.2620     0.9780 ca         1 YRG      -0.071500
      6 CAL          1.6560    -0.5920     0.7550 ca         1 YRG      -0.172500
      7 CAR          0.9960    -0.1250    -0.4050 ca         1 YRG       0.216100
      8 OAN         -0.3300    -0.4040    -0.6780 os         1 YRG      -0.329100
      9 CAS         -1.1380    -1.2870     0.1450 c3         1 YRG       0.021300
     10 CAO         -0.7260    -2.7940     0.0320 c          1 YRG       0.702000
     11 OAB         -1.1460    -3.5620     0.8890 o          1 YRG      -0.706500
     12 OAA          0.0330    -3.1500    -0.8610 o          1 YRG      -0.706500
     13 CAM         -2.6080    -1.0870    -0.2950 c3         1 YRG      -0.026100
     14 CAQ         -3.1000     0.3430    -0.0920 ca         1 YRG      -0.051300
     15 CAG         -3.2530     1.2090    -1.1930 ca         1 YRG      -0.105500
     16 CAE         -3.7060     2.5270    -1.0010 ca         1 YRG      -0.120000
     17 CAD         -4.0090     2.9850     0.2920 ca         1 YRG      -0.132000
     18 CAF         -3.8580     2.1260     1.3930 ca         1 YRG      -0.120000
     19 CAH         -3.4060     0.8090     1.2020 ca         1 YRG      -0.105500
     20 HAK          1.1890     1.0390    -2.2140 ha         1 YRG       0.129000
     21 HAI          3.5820     1.6220    -1.8170 ha         1 YRG       0.109000
     22 HAJ          3.5130    -0.6210     1.8700 ha         1 YRG       0.109000
     23 HAL          1.1420    -1.2050     1.4890 ha         1 YRG       0.129000
     24 HAS         -1.0630    -0.9960     1.2000 h1         1 YRG       0.030700
     25 HAM         -2.7110    -1.3880    -1.3450 hc         1 YRG       0.065700
     26 HAMA        -3.2450    -1.7730     0.2770 hc         1 YRG       0.065700
     27 HAG         -3.0170     0.8640    -2.1970 ha         1 YRG       0.115000
     28 HAE         -3.8200     3.1910    -1.8540 ha         1 YRG       0.097000
     29 HAD         -4.3580     4.0040     0.4400 ha         1 YRG       0.094000
     30 HAF         -4.0920     2.4800     2.3950 ha         1 YRG       0.097000
     31 HAH         -3.2910     0.1500     2.0600 ha         1 YRG       0.115000
@<TRIPOS>BOND
     1     1     2 ar  
     2     1     7 ar  
     3     1    20 1   
     4     2     3 ar  
     5     2    21 1   
     6     3     4 1   
     7     3     5 ar  
     8     5     6 ar  
     9     5    22 1   
    10     6     7 ar  
    11     6    23 1   
    12     7     8 1   
    13     8     9 1   
    14     9    10 1   
    15     9    13 1   
    16     9    24 1   
    17    10    11 1   
    18    10    12 1   
    19    13    14 1   
    20    13    25 1   
    21    13    26 1   
    22    14    15 ar  
    23    14    19 ar  
    24    15    16 ar  
    25    15    27 1   
    26    16    17 ar  
    27    16    28 1   
    28    17    18 ar  
    29    17    29 1   
    30    18    19 ar  
    31    18    30 1   
    32    19    31 1   
@<TRIPOS>SUBSTRUCTURE
     1 YRG         1 TEMP              0 ****  ****    0 ROOT
