@<TRIPOS>MOLECULE
YRG
   31    32     1     0     0
SMALL
abcg2


@<TRIPOS>ATOM
      1 CAK          1.6020     0.6970    -1.2880 ca         1 YRG      -0.172500
      2 CAI          2.9330     1.0160    -1.0980 ca         1 YRG      -0.071500
      3 CAP          3.6080     0.5100     0.0040 ca         1 YRG       0.053000
      4 CLAC         5.2820     0.9070     0.2480 cl         1 YRG      -0.258000
      5 CAJ          2.9550    -0.3080     0.9080 ca         1 YRG      -0.071500
      6 CAL          1.6180    -0.6320     0.7170 ca         1 YRG      -0.172500
      7 CAR          0.9270    -0.1330    -0.3880 ca         1 YRG       0.216100
      8 OAN         -0.3660    -0.3580    -0.6490 os         1 YRG      -0.329100
      9 CAS         -1.1000    -1.2370     0.1830 c3         1 YRG       0.021300
     10 CAO         -0.6560    -2.7130     0.0330 c          1 YRG       0.702000
     11 OAB         -1.0930    -3.4750     0.9160 o          1 YRG      -0.706500
     12 OAA          0.0510    -2.9990    -0.9450 o          1 YRG      -0.706500
     13 CAM         -2.5680    -1.0880    -0.2170 c3         1 YRG      -0.026100
     14 CAQ         -3.0700     0.3200    -0.0630 ca         1 YRG      -0.051300
     15 CAG         -3.0930     1.1980    -1.1440 ca         1 YRG      -0.105500
     16 CAE         -3.5310     2.5070    -0.9890 ca         1 YRG      -0.120000
     17 CAD         -3.9490     2.9600     0.2550 ca         1 YRG      -0.132000
     18 CAF         -3.9300     2.0940     1.3410 ca         1 YRG      -0.120000
     19 CAH         -3.4940     0.7860     1.1800 ca         1 YRG      -0.105500
     20 HAK          1.0720     1.0930    -2.1450 ha         1 YRG       0.129000
     21 HAI          3.4400     1.6570    -1.8070 ha         1 YRG       0.109000
     22 HAJ          3.4780    -0.7050     1.7680 ha         1 YRG       0.109000
     23 HAL          1.1420    -1.2750     1.4430 ha         1 YRG       0.129000
     24 HAS         -0.9980    -0.9300     1.2320 h1         1 YRG       0.030700
     25 HAM         -2.6960    -1.4250    -1.2500 hc         1 YRG       0.065700
     26 HAMA        -3.1460    -1.7650     0.4130 hc         1 YRG       0.065700
     27 HAG         -2.7690     0.8530    -2.1180 ha         1 YRG       0.115000
     28 HAE         -3.5460     3.1740    -1.8420 ha         1 YRG       0.097000
     29 HAD         -4.2920     3.9800     0.3770 ha         1 YRG       0.094000
     30 HAF         -4.2580     2.4370     2.3140 ha         1 YRG       0.097000
     31 HAH         -3.4890     0.1150     2.0320 ha         1 YRG       0.115000
@<TRIPOS>BOND
     1     1     2 ar  
     2     1     7 ar  
     3     1    20 1   
     4     2     3 ar  
     5     2    21 1   
     6     3     4 1   
     7     3     5 ar  
     8     5     6 ar  
     9     5    22 1   
    10     6     7 ar  
    11     6    23 1   
    12     7     8 1   
    13     8     9 1   
    14     9    10 1   
    15     9    13 1   
    16     9    24 1   
    17    10    11 1   
    18    10    12 1   
    19    13    14 1   
    20    13    25 1   
    21    13    26 1   
    22    14    15 ar  
    23    14    19 ar  
    24    15    16 ar  
    25    15    27 1   
    26    16    17 ar  
    27    16    28 1   
    28    17    18 ar  
    29    17    29 1   
    30    18    19 ar  
    31    18    30 1   
    32    19    31 1   
@<TRIPOS>SUBSTRUCTURE
     1 YRG         1 TEMP              0 ****  ****    0 ROOT
