@<TRIPOS>MOLECULE
YRI
   71    76     1     0     0
SMALL
abcg2


@<TRIPOS>ATOM
      1 C10          0.5750   -30.9360   -14.9610 ca         1 YRI      -0.074200
      2 C13          3.0570   -30.8020   -16.1880 ca         1 YRI      -0.022000
      3 C15          4.8770   -31.4700   -17.8350 cc         1 YRI       0.200300
      4 C20          4.3120   -32.5770   -18.6390 c3         1 YRI      -0.139400
      5 C21          1.9180   -30.8010   -16.9800 ca         1 YRI      -0.041000
      6 C24         -0.9780   -32.1580   -12.5170 c6         1 YRI      -0.087900
      7 C26         -2.0500   -30.8880   -10.6490 c6         1 YRI       0.167300
      8 C28         -1.0900   -29.6190   -12.6570 c6         1 YRI      -0.087900
      9 C02         -3.5510   -29.8730   -18.2910 c          1 YRI       0.586000
     10 C03         -3.7750   -31.2520   -18.8630 c6         1 YRI      -0.150400
     11 C04         -3.1490   -32.3970   -18.0850 c6         1 YRI      -0.074400
     12 C05         -3.4440   -32.2210   -16.6090 c6         1 YRI      -0.077400
     13 C06         -2.9000   -30.8930   -16.0890 c6         1 YRI       0.123400
     14 C07         -1.4040   -30.9180   -15.9070 cc         1 YRI       0.383800
     15 C09          0.6740   -30.8720   -16.3580 ca         1 YRI       0.064400
     16 C11          1.7100   -30.9340   -14.1530 ca         1 YRI      -0.113000
     17 C12          2.9360   -30.8700   -14.7860 ca         1 YRI      -0.082000
     18 C14          4.3850   -30.7320   -16.8050 cd         1 YRI      -0.177000
     19 C18          5.4580   -29.8460   -16.4900 cd         1 YRI       0.291300
     20 C19          5.4920   -28.7840   -15.4500 c3         1 YRI      -0.134400
     21 C23         -1.3800   -30.9380   -13.3680 c6         1 YRI       0.090300
     22 C25         -0.9040   -31.8110   -11.0300 c6         1 YRI      -0.090900
     23 C27         -1.9030   -29.5270   -11.3600 c6         1 YRI      -0.090900
     24 C32         -3.0450   -28.4950   -16.3950 ca         1 YRI      -0.039000
     25 C33         -4.0130   -27.9650   -15.5550 ca         1 YRI      -0.101000
     26 C34         -3.7960   -26.7530   -14.9220 ca         1 YRI      -0.088000
     27 C35         -2.6100   -26.0610   -15.1270 ca         1 YRI      -0.005900
     28 C36         -1.6390   -26.5920   -15.9730 ca         1 YRI      -0.001900
     29 C38         -1.8600   -27.8050   -16.6090 ca         1 YRI      -0.067000
     30 N08         -0.5770   -30.8600   -16.9130 nd         1 YRI      -0.569100
     31 N17          6.4780   -30.0530   -17.2700 nc         1 YRI      -0.366300
     32 N22         -0.7760   -30.9740   -14.6950 na         1 YRI      -0.169600
     33 N31         -3.2430   -29.7790   -16.9670 n          1 YRI      -0.244400
     34 O01         -3.7080   -28.8710   -18.9670 o          1 YRI      -0.538000
     35 O16          6.1200   -31.0680   -18.1110 os         1 YRI      -0.073700
     36 O29         -2.0780   -30.7670    -9.2460 os         1 YRI      -0.450000
     37 BR37        -0.0090   -25.7090   -16.2750 br         1 YRI      -0.057100
     38 BR39        -2.3550   -24.4260   -14.2420 br         1 YRI      -0.064100
     39 H1           5.0280   -33.3920   -18.7480 hc         1 YRI       0.064367
     40 H2           3.4170   -32.9650   -18.1580 hc         1 YRI       0.064367
     41 H3           4.0340   -32.2420   -19.6400 hc         1 YRI       0.064367
     42 H4           1.9880   -30.7240   -18.0580 ha         1 YRI       0.132000
     43 H5          -1.7120   -32.9500   -12.6770 hc         1 YRI       0.058700
     44 H6          -0.0190   -32.5660   -12.8390 hc         1 YRI       0.058700
     45 H7          -2.9880   -31.3610   -10.9860 h1         1 YRI       0.027700
     46 H8          -0.0240   -29.5320   -12.4400 hc         1 YRI       0.058700
     47 H9          -1.3420   -28.7850   -13.3160 hc         1 YRI       0.058700
     48 H10         -4.8620   -31.3850   -18.9010 hc         1 YRI       0.073200
     49 H11         -3.4360   -31.2350   -19.8990 hc         1 YRI       0.073200
     50 H12         -3.5550   -33.3450   -18.4390 hc         1 YRI       0.063700
     51 H13         -2.0720   -32.4270   -18.2550 hc         1 YRI       0.063700
     52 H14         -4.5250   -32.2370   -16.4420 hc         1 YRI       0.055700
     53 H15         -3.0190   -33.0280   -16.0100 hc         1 YRI       0.055700
     54 H16         -3.3790   -30.6930   -15.1300 h1         1 YRI       0.058700
     55 H17          1.6580   -30.9830   -13.0740 ha         1 YRI       0.121000
     56 H18          3.8320   -30.8860   -14.1790 ha         1 YRI       0.117000
     57 H19          6.3610   -28.1420   -15.5790 hc         1 YRI       0.057033
     58 H20          4.5940   -28.1690   -15.5030 hc         1 YRI       0.057033
     59 H21          5.5330   -29.2140   -14.4490 hc         1 YRI       0.057033
     60 H22         -2.4570   -30.9850   -13.5210 h1         1 YRI       0.057700
     61 H23         -0.9480   -32.7280   -10.4400 hc         1 YRI       0.056450
     62 H24          0.0510   -31.3300   -10.7950 hc         1 YRI       0.056450
     63 H25         -1.4040   -28.8280   -10.6840 hc         1 YRI       0.056450
     64 H26         -2.8880   -29.1070   -11.5750 hc         1 YRI       0.056450
     65 H27         -3.1940   -30.1790    -7.6630 h1         1 YRI       0.030033
     66 H28         -3.3170   -29.0930    -9.0530 h1         1 YRI       0.030033
     67 H29         -4.1480   -30.6580    -9.0780 h1         1 YRI       0.030033
     68 H30         -4.9380   -28.5000   -15.3870 ha         1 YRI       0.125000
     69 H31         -4.5570   -26.3470   -14.2690 ha         1 YRI       0.132000
     70 H32         -1.1070   -28.2290   -17.2590 ha         1 YRI       0.157000
     71 C30         -3.2350   -30.1430    -8.7520 c3         1 YRI       0.145900
@<TRIPOS>BOND
     1     1    15 ar  
     2     1    16 ar  
     3     1    32 1   
     4     2     5 ar  
     5     2    17 ar  
     6     2    18 1   
     7     3     4 1   
     8     3    18 2   
     9     3    35 1   
    10     4    39 1   
    11     4    40 1   
    12     4    41 1   
    13     5    15 ar  
    14     5    42 1   
    15     6    21 1   
    16     6    22 1   
    17     6    43 1   
    18     6    44 1   
    19     7    22 1   
    20     7    23 1   
    21     7    36 1   
    22     7    45 1   
    23     8    21 1   
    24     8    23 1   
    25     8    46 1   
    26     8    47 1   
    27     9    10 1   
    28     9    33 1   
    29     9    34 2   
    30    10    11 1   
    31    10    48 1   
    32    10    49 1   
    33    11    12 1   
    34    11    50 1   
    35    11    51 1   
    36    12    13 1   
    37    12    52 1   
    38    12    53 1   
    39    13    14 1   
    40    13    33 1   
    41    13    54 1   
    42    14    30 2   
    43    14    32 1   
    44    15    30 1   
    45    16    17 ar  
    46    16    55 1   
    47    17    56 1   
    48    18    19 1   
    49    19    20 1   
    50    19    31 2   
    51    20    57 1   
    52    20    58 1   
    53    20    59 1   
    54    21    32 1   
    55    21    60 1   
    56    22    61 1   
    57    22    62 1   
    58    23    63 1   
    59    23    64 1   
    60    24    25 ar  
    61    24    29 ar  
    62    24    33 1   
    63    25    26 ar  
    64    25    68 1   
    65    26    27 ar  
    66    26    69 1   
    67    27    28 ar  
    68    27    38 1   
    69    28    29 ar  
    70    28    37 1   
    71    29    70 1   
    72    31    35 1   
    73    36    71 1   
    74    65    71 1   
    75    66    71 1   
    76    67    71 1   
@<TRIPOS>SUBSTRUCTURE
     1 YRI         1 TEMP              0 ****  ****    0 ROOT
