@<TRIPOS>MOLECULE
YRI
   71    76     1     0     0
SMALL
No Charge or Current Charge


@<TRIPOS>ATOM
      1 C10          0.8510   -31.0500   -15.1100 ca         1 YRI      -0.074200
      2 C13          3.4280   -31.2500   -16.2030 ca         1 YRI      -0.022000
      3 C15          5.1670   -31.9620   -17.9480 cc         1 YRI       0.200300
      4 C20          4.4310   -32.8370   -18.9250 c3         1 YRI      -0.139400
      5 C21          2.2790   -31.3350   -17.0280 ca         1 YRI      -0.041000
      6 C24         -0.9620   -31.6840   -12.4930 c6         1 YRI      -0.087900
      7 C26         -2.0980   -29.8810   -11.0480 c6         1 YRI       0.167300
      8 C28         -0.6480   -29.1920   -13.1020 c6         1 YRI      -0.087900
      9 C02         -3.4320   -29.5580   -18.0500 c          1 YRI       0.586000
     10 C03         -3.6570   -30.6800   -19.0770 c6         1 YRI      -0.150400
     11 C04         -2.9080   -31.9920   -18.7840 c6         1 YRI      -0.074400
     12 C05         -3.0850   -32.3800   -17.3010 c6         1 YRI      -0.077400
     13 C06         -2.6620   -31.2510   -16.3190 c6         1 YRI       0.123400
     14 C07         -1.1430   -31.1910   -16.1250 cc         1 YRI       0.383800
     15 C09          1.0060   -31.2350   -16.4500 ca         1 YRI       0.064400
     16 C11          1.9530   -30.9850   -14.2440 ca         1 YRI      -0.113000
     17 C12          3.2420   -31.0820   -14.8040 ca         1 YRI      -0.082000
     18 C14          4.7940   -31.3510   -16.7770 cd         1 YRI      -0.177000
     19 C18          5.9810   -30.7010   -16.3350 cd         1 YRI       0.291300
     20 C19          6.1520   -29.7680   -15.1640 c3         1 YRI      -0.134400
     21 C23         -1.1200   -30.5900   -13.5910 c6         1 YRI       0.090300
     22 C25         -1.1810   -31.1280   -11.0540 c6         1 YRI      -0.090900
     23 C27         -1.4390   -28.7160   -11.8480 c6         1 YRI      -0.090900
     24 C32         -3.4720   -29.0000   -15.5980 ca         1 YRI      -0.039000
     25 C33         -4.4190   -29.3710   -14.6180 ca         1 YRI      -0.101000
     26 C34         -4.8170   -28.4640   -13.6220 ca         1 YRI      -0.088000
     27 C35         -4.3120   -27.1550   -13.6200 ca         1 YRI      -0.005900
     28 C36         -3.4220   -26.7500   -14.6330 ca         1 YRI      -0.001900
     29 C38         -3.0320   -27.6600   -15.6310 ca         1 YRI      -0.067000
     30 N08         -0.2160   -31.3160   -17.1020 nd         1 YRI      -0.569100
     31 N17          7.0220   -30.9320   -17.1120 nc         1 YRI      -0.366300
     32 N22         -0.5020   -30.9890   -14.8860 na         1 YRI      -0.169600
     33 N31         -3.2020   -29.9050   -16.6890 n          1 YRI      -0.244400
     34 O01         -3.5320   -28.3940   -18.4160 o          1 YRI      -0.538000
     35 O16          6.5090   -31.7640   -18.1590 os         1 YRI      -0.073700
     36 O29         -2.3880   -29.4940    -9.6890 os         1 YRI      -0.450000
     37 Br37        -2.7200   -24.9660   -14.6860 br         1 YRI      -0.057100
     38 Br39        -4.8630   -25.9520   -12.2320 br         1 YRI      -0.064100
     39 H1           5.1230   -33.5130   -19.4400 hc         1 YRI       0.064367
     40 H2           3.6840   -33.4560   -18.4140 hc         1 YRI       0.064367
     41 H3           3.9250   -32.2340   -19.6870 hc         1 YRI       0.064367
     42 H4           2.3550   -31.4450   -18.1030 ha         1 YRI       0.132000
     43 H5          -1.6880   -32.4840   -12.6920 hc         1 YRI       0.058700
     44 H6           0.0240   -32.1620   -12.5440 hc         1 YRI       0.058700
     45 H7          -3.0470   -30.1550   -11.5330 h1         1 YRI       0.027700
     46 H8           0.4190   -29.2100   -12.8550 hc         1 YRI       0.058700
     47 H9          -0.7570   -28.4540   -13.9080 hc         1 YRI       0.058700
     48 H10         -4.7290   -30.9110   -19.0150 hc         1 YRI       0.073200
     49 H11         -3.4800   -30.3030   -20.0930 hc         1 YRI       0.073200
     50 H12         -3.2920   -32.7950   -19.4290 hc         1 YRI       0.063700
     51 H13         -1.8470   -31.8810   -19.0410 hc         1 YRI       0.063700
     52 H14         -4.1430   -32.6200   -17.1250 hc         1 YRI       0.055700
     53 H15         -2.5280   -33.3010   -17.0810 hc         1 YRI       0.055700
     54 H16         -3.0990   -31.5440   -15.3560 h1         1 YRI       0.058700
     55 H17          1.8380   -30.8790   -13.1690 ha         1 YRI       0.121000
     56 H18          4.0940   -31.0660   -14.1330 ha         1 YRI       0.117000
     57 H19          7.0140   -29.1050   -15.3050 hc         1 YRI       0.057033
     58 H20          5.2720   -29.1290   -15.0350 hc         1 YRI       0.057033
     59 H21          6.3160   -30.3280   -14.2370 hc         1 YRI       0.057033
     60 H22         -2.1970   -30.4900   -13.7600 h1         1 YRI       0.057700
     61 H23         -1.6050   -31.9140   -10.4140 hc         1 YRI       0.056450
     62 H24         -0.2110   -30.8610   -10.6130 hc         1 YRI       0.056450
     63 H25         -0.7610   -28.1500   -11.1940 hc         1 YRI       0.056450
     64 H26         -2.2170   -28.0090   -12.1570 hc         1 YRI       0.056450
     65 H27         -3.5470   -28.2900    -8.4310 h1         1 YRI       0.030033
     66 H28         -2.9860   -27.4910    -9.9120 h1         1 YRI       0.030033
     67 H29         -4.3020   -28.6880    -9.9900 h1         1 YRI       0.030033
     68 H30         -4.8570   -30.3660   -14.6260 ha         1 YRI       0.125000
     69 H31         -5.5270   -28.7740   -12.8590 ha         1 YRI       0.132000
     70 H32         -2.3520   -27.3280   -16.4110 ha         1 YRI       0.157000
     71 C30         -3.3520   -28.4400    -9.5010 c3         1 YRI       0.145900
@<TRIPOS>BOND
     1     1    15 ar  
     2     1    16 ar  
     3     1    32 1   
     4     2     5 ar  
     5     2    17 ar  
     6     2    18 1   
     7     3     4 1   
     8     3    18 2   
     9     3    35 1   
    10     4    39 1   
    11     4    40 1   
    12     4    41 1   
    13     5    15 ar  
    14     5    42 1   
    15     6    21 1   
    16     6    22 1   
    17     6    43 1   
    18     6    44 1   
    19     7    22 1   
    20     7    23 1   
    21     7    36 1   
    22     7    45 1   
    23     8    21 1   
    24     8    23 1   
    25     8    46 1   
    26     8    47 1   
    27     9    10 1   
    28     9    33 1   
    29     9    34 2   
    30    10    11 1   
    31    10    48 1   
    32    10    49 1   
    33    11    12 1   
    34    11    50 1   
    35    11    51 1   
    36    12    13 1   
    37    12    52 1   
    38    12    53 1   
    39    13    14 1   
    40    13    33 1   
    41    13    54 1   
    42    14    30 2   
    43    14    32 1   
    44    15    30 1   
    45    16    17 ar  
    46    16    55 1   
    47    17    56 1   
    48    18    19 1   
    49    19    20 1   
    50    19    31 2   
    51    20    57 1   
    52    20    58 1   
    53    20    59 1   
    54    21    32 1   
    55    21    60 1   
    56    22    61 1   
    57    22    62 1   
    58    23    63 1   
    59    23    64 1   
    60    24    25 ar  
    61    24    29 ar  
    62    24    33 1   
    63    25    26 ar  
    64    25    68 1   
    65    26    27 ar  
    66    26    69 1   
    67    27    28 ar  
    68    27    38 1   
    69    28    29 ar  
    70    28    37 1   
    71    29    70 1   
    72    31    35 1   
    73    36    71 1   
    74    65    71 1   
    75    66    71 1   
    76    67    71 1   
@<TRIPOS>SUBSTRUCTURE
     1 YRI         1 TEMP              0 ****  ****    0 ROOT
