@<TRIPOS>MOLECULE
YRJ
   53    55     1     0     0
SMALL
abcg2


@<TRIPOS>ATOM
      1 C15         -1.5070     3.9670   -14.6580 ca         1 YRJ      -0.053300
      2 C17         -1.5960     3.1350   -12.4240 ca         1 YRJ      -0.028000
      3 C20          0.5250     2.4150   -11.2300 c3         1 YRJ       0.159300
      4 C22          1.8040     0.5940   -12.1690 c          1 YRJ       0.630100
      5 C26          2.5530    -2.0580   -13.4190 ca         1 YRJ      -0.191500
      6 C28          4.2850    -3.2240   -14.6100 ca         1 YRJ      -0.261200
      7 C02          2.2210     5.8590   -16.5120 c5         1 YRJ       0.116300
      8 C03          0.8310     5.7560   -15.8620 c5         1 YRJ       0.073300
      9 C05          0.5940     4.2360   -15.8690 c5         1 YRJ       0.281300
     10 C07          2.9040     4.6000   -16.0050 c5         1 YRJ       0.149300
     11 C08          3.6060     4.7940   -14.6740 c3         1 YRJ       0.213600
     12 C16         -2.2440     3.6430   -13.5420 ca         1 YRJ      -0.138000
     13 C18         -0.2160     2.9580   -12.4350 ca         1 YRJ      -0.082300
     14 C19          0.4770     3.3100   -13.5790 ca         1 YRJ      -0.009000
     15 C25          3.3970    -0.9360   -13.2800 ca         1 YRJ       0.088000
     16 C27          2.9980    -3.1860   -14.0780 ca         1 YRJ      -0.020500
     17 C29          5.1400    -2.1260   -14.4810 ca         1 YRJ      -0.020500
     18 C30          4.7010    -1.0010   -13.8250 ca         1 YRJ      -0.191500
     19 N14         -0.1710     3.8010   -14.6490 na         1 YRJ       0.032300
     20 N21          1.7910     1.8040   -11.5520 ns         1 YRJ      -0.523900
     21 N24          3.0560     0.2280   -12.6340 ns         1 YRJ      -0.158000
     22 O01          2.1150     5.7940   -17.9250 oh         1 YRJ      -0.706000
     23 O04         -0.1940     6.4020   -16.5860 oh         1 YRJ      -0.728000
     24 O06          1.8290     3.6150   -15.9010 os         1 YRJ      -0.407000
     25 O09          4.0730     3.5460   -14.2130 os         1 YRJ      -0.589400
     26 O11          5.8860     4.4580   -12.6560 o          1 YRJ      -0.870500
     27 O12          5.1180     2.0030   -12.5840 o          1 YRJ      -0.870500
     28 O13          3.5880     3.8420   -11.7270 o          1 YRJ      -0.870500
     29 O23          0.7900    -0.0980   -12.2960 o          1 YRJ      -0.713100
     30 O32          5.8810    -4.4180   -15.7610 o          1 YRJ      -0.445000
     31 O33          3.9700    -5.3630   -15.4030 o          1 YRJ      -0.445000
     32 P10          4.7340     3.4800   -12.6750 p5         1 YRJ       1.290900
     33 H151        -1.9410     4.3530   -15.5680 h4         1 YRJ       0.164000
     34 H171        -2.1660     2.8610   -11.5450 ha         1 YRJ       0.145000
     35 H202         0.7220     3.2410   -10.5440 h1         1 YRJ       0.076200
     36 H201        -0.1230     1.7090   -10.7130 h1         1 YRJ       0.076200
     37 H021         2.7430     6.7660   -16.1970 h1         1 YRJ       0.079700
     38 H031         0.8740     6.1200   -14.8350 h1         1 YRJ       0.075700
     39 H051        -0.0260     3.9380   -16.7160 h2         1 YRJ       0.102700
     40 H071         3.6020     4.2020   -16.7400 h1         1 YRJ       0.123700
     41 H082         4.4350     5.4920   -14.8300 h1         1 YRJ       0.025200
     42 H081         2.9290     5.2450   -13.9390 h1         1 YRJ       0.025200
     43 H161        -3.3160     3.7760   -13.5610 ha         1 YRJ       0.144000
     44 H191         1.5460     3.1990   -13.6770 h4         1 YRJ       0.246000
     45 H271         2.3500    -4.0440   -14.1780 ha         1 YRJ       0.132000
     46 H291         6.1350    -2.1650   -14.8990 ha         1 YRJ       0.132000
     47 H301         5.3470    -0.1400   -13.7210 ha         1 YRJ       0.170000
     48 H211         2.5930     2.4660   -11.6110 hn         1 YRJ       0.418500
     49 H241         3.8220     0.9420   -12.5710 hn         1 YRJ       0.261000
     50 H011         1.3500     6.3330   -18.1800 ho         1 YRJ       0.509000
     51 H041        -0.2960     7.3030   -16.2530 ho         1 YRJ       0.524000
     52 N31          4.7380    -4.4040   -15.2980 no         1 YRJ       0.689200
     53 H261         1.5600    -2.0290   -13.0070 ha         1 YRJ       0.170000
@<TRIPOS>BOND
     1     1    12 ar  
     2     1    19 2   
     3     1    33 1   
     4     2    12 ar  
     5     2    13 ar  
     6     2    34 1   
     7     3    13 1   
     8     3    20 1   
     9     3    35 1   
    10     3    36 1   
    11     4    20 1   
    12     4    21 1   
    13     4    29 2   
    14     5    15 ar  
    15     5    16 ar  
    16     5    53 1   
    17     6    16 ar  
    18     6    17 ar  
    19     6    52 1   
    20     7     8 1   
    21     7    10 1   
    22     7    22 1   
    23     7    37 1   
    24     8     9 1   
    25     8    23 1   
    26     8    38 1   
    27     9    19 1   
    28     9    24 1   
    29     9    39 1   
    30    10    11 1   
    31    10    24 1   
    32    10    40 1   
    33    11    25 1   
    34    11    41 1   
    35    11    42 1   
    36    12    43 1   
    37    13    14 ar  
    38    14    19 1   
    39    14    44 1   
    40    15    18 ar  
    41    15    21 1   
    42    16    45 1   
    43    17    18 ar  
    44    17    46 1   
    45    18    47 1   
    46    20    48 1   
    47    21    49 1   
    48    22    50 1   
    49    23    51 1   
    50    25    32 1   
    51    26    32 1   
    52    27    32 1   
    53    28    32 1   
    54    30    52 1   
    55    31    52 1   
@<TRIPOS>SUBSTRUCTURE
     1 YRJ         1 TEMP              0 ****  ****    0 ROOT
