@<TRIPOS>MOLECULE
YRJ
   53    55     1     0     0
SMALL
No Charge or Current Charge


@<TRIPOS>ATOM
      1 C15         -1.6830     4.1960   -14.7560 ca         1 YRJ      -0.053300
      2 C17         -1.6910     2.8590   -12.7230 ca         1 YRJ      -0.028000
      3 C20          0.4940     2.2620   -11.5650 c3         1 YRJ       0.159300
      4 C22          1.7660     0.2560   -12.3820 c          1 YRJ       0.630100
      5 C26          2.8500    -2.6270   -12.8870 ca         1 YRJ      -0.191500
      6 C28          4.5710    -3.9240   -14.0420 ca         1 YRJ      -0.261200
      7 C02          2.0960     6.5980   -16.4680 c5         1 YRJ       0.116300
      8 C03          0.8490     6.4470   -15.5500 c5         1 YRJ       0.073300
      9 C05          0.4410     4.9640   -15.8500 c5         1 YRJ       0.281300
     10 C07          2.7760     5.2110   -16.2420 c5         1 YRJ       0.149300
     11 C08          3.6430     5.1330   -14.9480 c3         1 YRJ       0.213600
     12 C16         -2.3890     3.5010   -13.7570 ca         1 YRJ      -0.138000
     13 C18         -0.2880     2.9260   -12.6950 ca         1 YRJ      -0.082300
     14 C19          0.3850     3.6330   -13.7140 ca         1 YRJ      -0.009000
     15 C25          3.4890    -1.4210   -13.2400 ca         1 YRJ       0.088000
     16 C27          3.3810    -3.8670   -13.2840 ca         1 YRJ      -0.020500
     17 C29          5.2190    -2.7180   -14.3880 ca         1 YRJ      -0.020500
     18 C30          4.6800    -1.4840   -13.9850 ca         1 YRJ      -0.191500
     19 N14         -0.2820     4.2650   -14.7750 na         1 YRJ       0.032300
     20 N21          1.7000     1.5830   -12.0440 ns         1 YRJ      -0.523900
     21 N24          3.0020    -0.1430   -12.8570 ns         1 YRJ      -0.158000
     22 O01          1.6830     6.8080   -17.8260 oh         1 YRJ      -0.706000
     23 O04         -0.1720     7.4090   -15.8900 oh         1 YRJ      -0.728000
     24 O06          1.6700     4.2650   -16.1870 os         1 YRJ      -0.407000
     25 O09          4.0660     3.7770   -14.7450 os         1 YRJ      -0.589400
     26 O11          5.8540     4.1200   -12.9890 o          1 YRJ      -0.870500
     27 O12          4.9260     1.8880   -13.3380 o          1 YRJ      -0.870500
     28 O13          3.5720     3.5680   -12.2890 o          1 YRJ      -0.870500
     29 O23          0.7950    -0.4790   -12.2720 o          1 YRJ      -0.713100
     30 O32          6.1860    -5.2420   -15.1280 o          1 YRJ      -0.445000
     31 O33          4.5380    -6.2730   -14.1400 o          1 YRJ      -0.445000
     32 P10          4.6280     3.3410   -13.3060 p5         1 YRJ       1.290900
     33 H151        -2.2180     4.7080   -15.5570 h4         1 YRJ       0.164000
     34 H171        -2.2370     2.3240   -11.9470 ha         1 YRJ       0.145000
     35 H202         0.7940     3.0320   -10.8410 h1         1 YRJ       0.076200
     36 H201        -0.1460     1.5460   -11.0330 h1         1 YRJ       0.076200
     37 H021         2.7440     7.4220   -16.1330 h1         1 YRJ       0.079700
     38 H031         1.1320     6.5470   -14.4910 h1         1 YRJ       0.075700
     39 H051        -0.2190     4.9400   -16.7260 h2         1 YRJ       0.102700
     40 H071         3.4260     4.9510   -17.0880 h1         1 YRJ       0.123700
     41 H082         4.5130     5.7920   -15.0640 h1         1 YRJ       0.025200
     42 H081         3.0620     5.4950   -14.0900 h1         1 YRJ       0.025200
     43 H161        -3.4760     3.4650   -13.7830 ha         1 YRJ       0.144000
     44 H191         1.4710     3.6990   -13.7130 h4         1 YRJ       0.246000
     45 H271         2.8600    -4.7790   -12.9940 ha         1 YRJ       0.132000
     46 H291         6.1410    -2.7250   -14.9680 ha         1 YRJ       0.132000
     47 H301         5.1960    -0.5670   -14.2620 ha         1 YRJ       0.170000
     48 H211         2.5500     2.1500   -12.1390 hn         1 YRJ       0.418500
     49 H241         3.6840     0.6050   -12.9550 hn         1 YRJ       0.261000
     50 H011         0.8050     7.2580   -17.7390 ho         1 YRJ       0.509000
     51 H041        -0.1020     8.1650   -15.2550 ho         1 YRJ       0.524000
     52 N31          5.1400    -5.2420   -14.4670 no         1 YRJ       0.689200
     53 H261         1.9420    -2.6250   -12.2920 ha         1 YRJ       0.170000
@<TRIPOS>BOND
     1     1    12 ar  
     2     1    19 2   
     3     1    33 1   
     4     2    12 ar  
     5     2    13 ar  
     6     2    34 1   
     7     3    13 1   
     8     3    20 1   
     9     3    35 1   
    10     3    36 1   
    11     4    20 1   
    12     4    21 1   
    13     4    29 2   
    14     5    15 ar  
    15     5    16 ar  
    16     5    53 1   
    17     6    16 ar  
    18     6    17 ar  
    19     6    52 1   
    20     7     8 1   
    21     7    10 1   
    22     7    22 1   
    23     7    37 1   
    24     8     9 1   
    25     8    23 1   
    26     8    38 1   
    27     9    19 1   
    28     9    24 1   
    29     9    39 1   
    30    10    11 1   
    31    10    24 1   
    32    10    40 1   
    33    11    25 1   
    34    11    41 1   
    35    11    42 1   
    36    12    43 1   
    37    13    14 ar  
    38    14    19 1   
    39    14    44 1   
    40    15    18 ar  
    41    15    21 1   
    42    16    45 1   
    43    17    18 ar  
    44    17    46 1   
    45    18    47 1   
    46    20    48 1   
    47    21    49 1   
    48    22    50 1   
    49    23    51 1   
    50    25    32 1   
    51    26    32 1   
    52    27    32 1   
    53    28    32 1   
    54    30    52 1   
    55    31    52 1   
@<TRIPOS>SUBSTRUCTURE
     1 YRJ         1 TEMP              0 ****  ****    0 ROOT
