@<TRIPOS>MOLECULE
YRK
   59    63     1     0     0
SMALL
No Charge or Current Charge


@<TRIPOS>ATOM
      1 C12        -22.3130   -12.2790    12.1140 ca         1 YRK      -0.056200
      2 C13        -22.3350   -12.8900    13.3860 ca         1 YRK      -0.133300
      3 C27        -21.7080   -14.1590    13.5000 ca         1 YRK      -0.110000
      4 C29        -21.0550   -14.1090    11.1400 ca         1 YRK      -0.063000
      5 C31        -20.4140   -11.3200     7.9790 ca         1 YRK       0.379900
      6 C30        -21.6940   -12.8670    11.0470 ca         1 YRK      -0.086800
      7 C14        -23.0230   -12.2010    14.5740 c3         1 YRK       0.189000
      8 C15        -22.4110   -12.5560    15.9480 c3         1 YRK      -0.094100
      9 C01        -22.5410   -15.6150     6.2220 c3         1 YRK       0.149900
     10 C03        -21.2450   -13.5310     6.5500 ca         1 YRK       0.045100
     11 C04        -21.7720   -13.3300     7.8460 ca         1 YRK      -0.141000
     12 C05        -21.3550   -12.1970     8.5700 ca         1 YRK       0.004200
     13 C06        -21.8430   -11.9840     9.9320 cc         1 YRK      -0.143400
     14 C07        -22.5980   -10.8820    10.3550 cd         1 YRK      -0.051300
     15 C08        -23.0820    -9.7190     9.5310 c          1 YRK       0.720200
     16 C17        -25.1400   -13.7130    14.8170 c5         1 YRK       0.087000
     17 C18        -26.6150   -13.2040    14.8280 cy         1 YRK       0.137000
     18 C19        -27.8010   -14.1600    14.4540 cy         1 YRK      -0.077900
     19 C20        -28.6910   -13.3010    15.4160 cy         1 YRK      -0.079700
     20 C21        -29.8550   -13.9780    16.1550 c3         1 YRK       0.160800
     21 C23        -27.3600   -13.0430    16.2010 cy         1 YRK      -0.077900
     22 C25        -25.3440   -11.4720    14.0350 c          1 YRK       0.690100
     23 C28        -21.0740   -14.7600    12.3880 ca         1 YRK      -0.169000
     24 C33        -20.3110   -12.5750     6.0610 ca         1 YRK       0.535300
     25 N11        -22.8790   -11.0660    11.7350 na         1 YRK      -0.192700
     26 N16        -24.4820   -12.4240    14.5520 n          1 YRK      -0.443800
     27 N22        -30.9870   -14.3880    15.3050 n8         1 YRK      -0.994200
     28 N32        -19.8900   -11.5010     6.7390 nb         1 YRK      -0.749000
     29 O09        -22.8380    -9.6650     8.3350 o          1 YRK      -0.693500
     30 O10        -23.7290    -8.8550    10.1070 o          1 YRK      -0.693500
     31 O24        -26.5970   -11.9840    14.0710 os         1 YRK      -0.404100
     32 O26        -25.0370   -10.3730    13.6000 o          1 YRK      -0.529000
     33 O34        -19.7400   -12.6690     4.8450 oh         1 YRK      -0.651300
     34 H271       -21.7070   -14.6940    14.4450 ha         1 YRK       0.088000
     35 H291       -20.5660   -14.5580    10.2790 ha         1 YRK       0.106000
     36 H141       -22.8410   -11.1230    14.4610 h1         1 YRK       0.084700
     37 H152       -22.8590   -11.9330    16.7320 hc         1 YRK       0.037033
     38 H153       -22.5850   -13.6050    16.2150 hc         1 YRK       0.037033
     39 H151       -21.3310   -12.3730    15.9460 hc         1 YRK       0.037033
     40 H013       -22.6830   -16.3830     5.4510 h1         1 YRK       0.032033
     41 H011       -22.1730   -16.1090     7.1300 h1         1 YRK       0.032033
     42 H012       -23.5180   -15.1630     6.4370 h1         1 YRK       0.032033
     43 H041       -22.4820   -14.0190     8.2940 ha         1 YRK       0.119000
     44 H172       -24.9350   -14.4310    14.0120 h1         1 YRK       0.060700
     45 H171       -24.8240   -14.1560    15.7700 h1         1 YRK       0.060700
     46 H192       -28.0990   -14.1620    13.4010 hc         1 YRK       0.063950
     47 H191       -27.6590   -15.2000    14.7730 hc         1 YRK       0.063950
     48 H201       -29.0840   -12.3940    14.9400 hc         1 YRK       0.068700
     49 H212       -29.4690   -14.8690    16.6680 h1         1 YRK       0.024200
     50 H211       -30.2290   -13.2800    16.9170 h1         1 YRK       0.024200
     51 H231       -27.1120   -13.8130    16.9410 hc         1 YRK       0.063950
     52 H232       -27.2690   -12.0630    16.6810 hc         1 YRK       0.063950
     53 H281       -20.5950   -15.7300    12.4980 ha         1 YRK       0.091000
     54 H111       -23.4750   -10.4660    12.3020 hn         1 YRK       0.390000
     55 H222       -31.7330   -14.7650    15.9020 hn         1 YRK       0.390500
     56 H1         -31.4100   -13.5520    14.8860 hn         1 YRK       0.390500
     57 H341       -19.1620   -11.8800     4.8160 ho         1 YRK       0.466000
     58 O02        -21.6070   -14.6200     5.7670 os         1 YRK      -0.329100
     59 H311       -20.0560   -10.4490     8.5280 h4         1 YRK       0.038100
@<TRIPOS>BOND
     1     1     2 ar  
     2     1     6 ar  
     3     1    25 1   
     4     2     3 ar  
     5     2     7 1   
     6     3    23 ar  
     7     3    34 1   
     8     4     6 ar  
     9     4    23 ar  
    10     4    35 1   
    11     5    12 ar  
    12     5    28 ar  
    13     5    59 1   
    14     6    13 1   
    15     7     8 1   
    16     7    26 1   
    17     7    36 1   
    18     8    37 1   
    19     8    38 1   
    20     8    39 1   
    21     9    40 1   
    22     9    41 1   
    23     9    42 1   
    24     9    58 1   
    25    10    11 ar  
    26    10    24 ar  
    27    10    58 1   
    28    11    12 ar  
    29    11    43 1   
    30    12    13 1   
    31    13    14 2   
    32    14    15 1   
    33    14    25 1   
    34    15    29 1   
    35    15    30 1   
    36    16    17 1   
    37    16    26 1   
    38    16    44 1   
    39    16    45 1   
    40    17    18 1   
    41    17    21 1   
    42    17    31 1   
    43    18    19 1   
    44    18    46 1   
    45    18    47 1   
    46    19    20 1   
    47    19    21 1   
    48    19    48 1   
    49    20    27 1   
    50    20    49 1   
    51    20    50 1   
    52    21    51 1   
    53    21    52 1   
    54    22    26 1   
    55    22    31 1   
    56    22    32 2   
    57    23    53 1   
    58    24    28 ar  
    59    24    33 1   
    60    25    54 1   
    61    27    55 1   
    62    27    56 1   
    63    33    57 1   
@<TRIPOS>SUBSTRUCTURE
     1 YRK         1 TEMP              0 ****  ****    0 ROOT
