@<TRIPOS>MOLECULE
YRK
   59    63     1     0     0
SMALL
abcg2


@<TRIPOS>ATOM
      1 C12        -22.3440   -12.2810    12.2230 ca         1 YRK      -0.056200
      2 C13        -22.3400   -12.8810    13.4910 ca         1 YRK      -0.133300
      3 C27        -21.8070   -14.1540    13.5610 ca         1 YRK      -0.110000
      4 C29        -21.2850   -14.2020    11.1930 ca         1 YRK      -0.063000
      5 C31        -20.6410   -11.4070     7.9610 ca         1 YRK       0.379900
      6 C30        -21.8250   -12.9160    11.0740 ca         1 YRK      -0.086800
      7 C14        -22.9220   -12.1500    14.6820 c3         1 YRK       0.189000
      8 C15        -22.4020   -12.6270    16.0310 c3         1 YRK      -0.094100
      9 C01        -22.6050   -15.7090     6.4380 c3         1 YRK       0.149900
     10 C03        -21.4300   -13.6720     6.6620 ca         1 YRK       0.045100
     11 C04        -21.8970   -13.4230     7.9360 ca         1 YRK      -0.141000
     12 C05        -21.5080   -12.2600     8.6170 ca         1 YRK       0.004200
     13 C06        -21.9710   -11.9980     9.9820 cc         1 YRK      -0.143400
     14 C07        -22.5680   -10.8670    10.4970 cd         1 YRK      -0.051300
     15 C08        -23.0520    -9.5790     9.8690 c          1 YRK       0.720200
     16 C17        -25.1270   -13.4340    14.7160 c5         1 YRK       0.087000
     17 C18        -26.5530   -12.9040    14.7590 cy         1 YRK       0.137000
     18 C19        -27.7040   -13.6650    14.1010 cy         1 YRK      -0.077900
     19 C20        -28.6170   -13.2400    15.2680 cy         1 YRK      -0.079700
     20 C21        -29.5530   -14.2790    15.8400 c3         1 YRK       0.160800
     21 C23        -27.3490   -12.8890    16.0750 cy         1 YRK      -0.077900
     22 C25        -25.1580   -11.1810    14.2550 c          1 YRK       0.690100
     23 C28        -21.2870   -14.8080    12.4310 ca         1 YRK      -0.169000
     24 C33        -20.5640   -12.7170     6.0940 ca         1 YRK       0.535300
     25 N11        -22.7780   -11.0520    11.8360 na         1 YRK      -0.192700
     26 N16        -24.3750   -12.2040    14.6480 n          1 YRK      -0.443800
     27 N22        -30.5350   -14.6820    14.8450 n8         1 YRK      -0.994200
     28 N32        -20.1890   -11.6350     6.7270 nb         1 YRK      -0.749000
     29 O09        -22.9810    -9.4860     8.6330 o          1 YRK      -0.693500
     30 O10        -23.4920    -8.7390    10.6790 o          1 YRK      -0.693500
     31 O24        -26.4350   -11.5770    14.2200 os         1 YRK      -0.404100
     32 O26        -24.8250   -10.0530    13.9570 o          1 YRK      -0.529000
     33 O34        -20.1140   -12.9460     4.8540 oh         1 YRK      -0.651300
     34 H271       -21.7750   -14.6730    14.5110 ha         1 YRK       0.088000
     35 H291       -20.8700   -14.7120    10.3320 ha         1 YRK       0.106000
     36 H141       -22.6580   -11.0930    14.5960 h1         1 YRK       0.084700
     37 H152       -22.8270   -12.0130    16.8250 hc         1 YRK       0.037033
     38 H153       -22.6560   -13.6660    16.2380 hc         1 YRK       0.037033
     39 H151       -21.3180   -12.5320    16.0730 hc         1 YRK       0.037033
     40 H013       -22.7120   -16.4830     5.6820 h1         1 YRK       0.032033
     41 H011       -22.2080   -16.1610     7.3510 h1         1 YRK       0.032033
     42 H012       -23.5910   -15.2890     6.6540 h1         1 YRK       0.032033
     43 H041       -22.5800   -14.1100     8.4190 ha         1 YRK       0.119000
     44 H172       -24.9520   -14.0630    13.8360 h1         1 YRK       0.060700
     45 H171       -24.8890   -14.0190    15.6050 h1         1 YRK       0.060700
     46 H192       -27.9690   -13.3700    13.0860 hc         1 YRK       0.063950
     47 H191       -27.5120   -14.7400    14.1140 hc         1 YRK       0.063950
     48 H201       -29.1750   -12.3330    15.0140 hc         1 YRK       0.068700
     49 H212       -28.9680   -15.1600    16.1210 h1         1 YRK       0.024200
     50 H211       -29.9950   -13.8920    16.7700 h1         1 YRK       0.024200
     51 H231       -27.0440   -13.7130    16.7230 hc         1 YRK       0.063950
     52 H232       -27.3350   -11.9640    16.6520 hc         1 YRK       0.063950
     53 H281       -20.8760   -15.8030    12.5440 ha         1 YRK       0.091000
     54 H111       -23.2500   -10.3660    12.4070 hn         1 YRK       0.390000
     55 H222       -31.1170   -15.4200    15.2200 hn         1 YRK       0.390500
     56 H1         -31.1620   -13.9090    14.6570 hn         1 YRK       0.390500
     57 H341       -19.5330   -12.2150     4.6020 ho         1 YRK       0.466000
     58 O02        -21.7260   -14.7410     5.9020 os         1 YRK      -0.329100
     59 H311       -20.2920   -10.5030     8.4420 h4         1 YRK       0.038100
@<TRIPOS>BOND
     1     1     2 ar  
     2     1     6 ar  
     3     1    25 1   
     4     2     3 ar  
     5     2     7 1   
     6     3    23 ar  
     7     3    34 1   
     8     4     6 ar  
     9     4    23 ar  
    10     4    35 1   
    11     5    12 ar  
    12     5    28 ar  
    13     5    59 1   
    14     6    13 1   
    15     7     8 1   
    16     7    26 1   
    17     7    36 1   
    18     8    37 1   
    19     8    38 1   
    20     8    39 1   
    21     9    40 1   
    22     9    41 1   
    23     9    42 1   
    24     9    58 1   
    25    10    11 ar  
    26    10    24 ar  
    27    10    58 1   
    28    11    12 ar  
    29    11    43 1   
    30    12    13 1   
    31    13    14 2   
    32    14    15 1   
    33    14    25 1   
    34    15    29 1   
    35    15    30 1   
    36    16    17 1   
    37    16    26 1   
    38    16    44 1   
    39    16    45 1   
    40    17    18 1   
    41    17    21 1   
    42    17    31 1   
    43    18    19 1   
    44    18    46 1   
    45    18    47 1   
    46    19    20 1   
    47    19    21 1   
    48    19    48 1   
    49    20    27 1   
    50    20    49 1   
    51    20    50 1   
    52    21    51 1   
    53    21    52 1   
    54    22    26 1   
    55    22    31 1   
    56    22    32 2   
    57    23    53 1   
    58    24    28 ar  
    59    24    33 1   
    60    25    54 1   
    61    27    55 1   
    62    27    56 1   
    63    33    57 1   
@<TRIPOS>SUBSTRUCTURE
     1 YRK         1 TEMP              0 ****  ****    0 ROOT
