@<TRIPOS>MOLECULE
YRL
   20    20     1     0     0
SMALL
No Charge or Current Charge


@<TRIPOS>ATOM
      1 C01         -0.4330    -0.0380    -0.4520 ca         1 YRL      -0.119300
      2 C02          0.2350    -1.2710    -0.3230 ca         1 YRL      -0.068000
      3 C03          0.2970     1.1620    -0.3360 ca         1 YRL      -0.068000
      4 C04          1.6200    -1.3020    -0.0830 ca         1 YRL      -0.174000
      5 C05          1.6820     1.1270    -0.0960 ca         1 YRL      -0.174000
      6 C06          2.3420    -0.1060     0.0300 ca         1 YRL       0.138100
      7 O07          3.6840    -0.1470     0.2640 oh         1 YRL      -0.535100
      8 C08         -1.9360    -0.0010    -0.7080 c3         1 YRL      -0.030100
      9 C09         -2.7470     0.0260     0.6030 c3         1 YRL       0.162600
     10 O10         -4.1500     0.0600     0.3110 oh         1 YRL      -0.663000
     11 H021        -0.3180    -2.2050    -0.4070 ha         1 YRL       0.113000
     12 H031        -0.2090     2.1200    -0.4310 ha         1 YRL       0.113000
     13 H041         2.1320    -2.2560     0.0160 ha         1 YRL       0.120500
     14 H051         2.2330     2.0600    -0.0080 ha         1 YRL       0.120500
     15 H071         4.0190     0.7740     0.3120 ho         1 YRL       0.463000
     16 H082        -2.1950     0.8800    -1.3080 hc         1 YRL       0.058700
     17 H081        -2.2390    -0.8740    -1.2980 hc         1 YRL       0.058700
     18 H092        -2.5040    -0.8650     1.1970 h1         1 YRL       0.019200
     19 H091        -2.4590     0.9110     1.1870 h1         1 YRL       0.019200
     20 H101        -4.6200     0.0770     1.1750 ho         1 YRL       0.443000
@<TRIPOS>BOND
     1     1     2 ar  
     2     1     3 ar  
     3     1     8 1   
     4     2     4 ar  
     5     2    11 1   
     6     3     5 ar  
     7     3    12 1   
     8     4     6 ar  
     9     4    13 1   
    10     5     6 ar  
    11     5    14 1   
    12     6     7 1   
    13     7    15 1   
    14     8     9 1   
    15     8    16 1   
    16     8    17 1   
    17     9    10 1   
    18     9    18 1   
    19     9    19 1   
    20    10    20 1   
@<TRIPOS>SUBSTRUCTURE
     1 YRL         1 TEMP              0 ****  ****    0 ROOT
