@<TRIPOS>MOLECULE
YRL
   20    20     1     0     0
SMALL
bcc


@<TRIPOS>ATOM
      1 C01         -0.4550     0.0350    -0.4750 ca         1 YRL      -0.119300
      2 C02          0.1840    -1.1830    -0.2520 ca         1 YRL      -0.086000
      3 C03          0.3230     1.1860    -0.4350 ca         1 YRL      -0.086000
      4 C04          1.5420    -1.2550     0.0080 ca         1 YRL      -0.192000
      5 C05          1.6860     1.1340    -0.1800 ca         1 YRL      -0.192000
      6 C06          2.3030    -0.0900     0.0470 ca         1 YRL       0.138100
      7 O07          3.6240    -0.2120     0.3020 oh         1 YRL      -0.496100
      8 C08         -1.9390     0.0940    -0.7060 c3         1 YRL      -0.030100
      9 C09         -2.7040    -0.0490     0.6010 c3         1 YRL       0.139400
     10 O10         -4.0860     0.0040     0.3270 oh         1 YRL      -0.600800
     11 H021        -0.3890    -2.1030    -0.2820 ha         1 YRL       0.131000
     12 H031        -0.1360     2.1520    -0.6110 ha         1 YRL       0.131000
     13 H041         2.0160    -2.2130     0.1820 ha         1 YRL       0.138500
     14 H051         2.2600     2.0540    -0.1620 ha         1 YRL       0.138500
     15 H071         4.0400     0.6530     0.3400 ho         1 YRL       0.424000
     16 H082        -2.2080     1.0410    -1.1790 hc         1 YRL       0.058700
     17 H081        -2.2470    -0.7010    -1.3900 hc         1 YRL       0.058700
     18 H092        -2.4250    -0.9970     1.0790 h1         1 YRL       0.019200
     19 H091        -2.3970     0.7510     1.2870 h1         1 YRL       0.019200
     20 H101        -4.5570    -0.1690     1.1450 ho         1 YRL       0.404000
@<TRIPOS>BOND
     1     1     2 ar  
     2     1     3 ar  
     3     1     8 1   
     4     2     4 ar  
     5     2    11 1   
     6     3     5 ar  
     7     3    12 1   
     8     4     6 ar  
     9     4    13 1   
    10     5     6 ar  
    11     5    14 1   
    12     6     7 1   
    13     7    15 1   
    14     8     9 1   
    15     8    16 1   
    16     8    17 1   
    17     9    10 1   
    18     9    18 1   
    19     9    19 1   
    20    10    20 1   
@<TRIPOS>SUBSTRUCTURE
     1 YRL         1 TEMP              0 ****  ****    0 ROOT
