@<TRIPOS>MOLECULE
YRM
   45    48     1     0     0
SMALL
bcc


@<TRIPOS>ATOM
      1 C01        -32.0190   -28.0410   -33.1970 cc         1 YRM       0.188300
      2 C03        -32.7260   -27.0620   -35.2870 c6         1 YRM       0.196800
      3 C04        -32.2390   -26.9870   -36.7410 c6         1 YRM      -0.037000
      4 C05        -31.0580   -25.9670   -36.7830 c5         1 YRM       0.046400
      5 C06        -29.9760   -26.3450   -35.7630 c6         1 YRM      -0.080400
      6 C07        -30.5620   -26.5150   -34.3740 c6         1 YRM       0.188800
      7 C08        -31.8220   -28.3910   -37.1910 c3         1 YRM      -0.087100
      8 C09        -33.4040   -26.5250   -37.6140 c3         1 YRM      -0.087100
      9 C11        -31.3450   -29.5700   -31.4300 cc         1 YRM      -0.120300
     10 C12        -32.5560   -29.3370   -30.7430 cc         1 YRM      -0.018000
     11 C13        -33.4610   -28.4920   -31.3000 cd         1 YRM      -0.194300
     12 C14        -33.1780   -27.8200   -32.5280 cd         1 YRM      -0.177000
     13 C15        -29.9370   -29.4100   -33.1250 cc         1 YRM       0.356700
     14 C17        -30.2460   -30.3830   -31.2420 cd         1 YRM      -0.000400
     15 C19        -31.2930   -23.7850   -37.6150 c          1 YRM       0.827500
     16 C21        -30.4280   -25.8350   -38.1710 c          1 YRM       0.712500
     17 C24        -34.7780   -28.2150   -30.6570 c3         1 YRM       0.727200
     18 F25        -34.9210   -26.9140   -30.3620 f          1 YRM      -0.233633
     19 F26        -35.7940   -28.5260   -31.4760 f          1 YRM      -0.233633
     20 F27        -34.9610   -28.9000   -29.5280 f          1 YRM      -0.233633
     21 N02        -31.6530   -27.4890   -34.4080 nh         1 YRM      -0.657000
     22 N10        -31.1180   -28.9390   -32.6480 na         1 YRM      -0.054200
     23 N16        -29.4030   -30.2710   -32.2920 nd         1 YRM      -0.550300
     24 N18        -31.5180   -24.6080   -36.5720 ns         1 YRM      -0.596900
     25 N20        -30.6490   -24.5570   -38.5790 ns         1 YRM      -0.617500
     26 O23        -31.5690   -22.6120   -37.7270 o          1 YRM      -0.616500
     27 H1         -33.1490   -26.0960   -34.9710 h1         1 YRM       0.048200
     28 H2         -33.5380   -27.7900   -35.2350 h1         1 YRM       0.048200
     29 H3         -29.4840   -27.2680   -36.0710 hc         1 YRM       0.074700
     30 H4         -29.2120   -25.5650   -35.7350 hc         1 YRM       0.074700
     31 H5         -29.7780   -26.8420   -33.6910 h1         1 YRM       0.049700
     32 H6         -30.9290   -25.5550   -33.9840 h1         1 YRM       0.049700
     33 H7         -30.9520   -28.7730   -36.6600 hc         1 YRM       0.047533
     34 H8         -32.6470   -29.0790   -36.9980 hc         1 YRM       0.047533
     35 H9         -31.6120   -28.4300   -38.2570 hc         1 YRM       0.047533
     36 H10        -33.8280   -25.5760   -37.2860 hc         1 YRM       0.047533
     37 H11        -33.1050   -26.4180   -38.6590 hc         1 YRM       0.047533
     38 H12        -34.2020   -27.2680   -37.5870 hc         1 YRM       0.047533
     39 H13        -32.7280   -29.8580   -29.8120 ha         1 YRM       0.167000
     40 H14        -33.8830   -27.1100   -32.9380 ha         1 YRM       0.157000
     41 H15        -29.5250   -29.1130   -34.0760 h5         1 YRM       0.078800
     42 H16        -30.0510   -31.0370   -30.4070 h4         1 YRM       0.185000
     43 H17        -31.9830   -24.2800   -35.7420 hn         1 YRM       0.348500
     44 H18        -30.3210   -24.1750   -39.4550 hn         1 YRM       0.358500
     45 O22        -29.8220   -26.6850   -38.7780 o          1 YRM      -0.573500
@<TRIPOS>BOND
     1     1    12 2   
     2     1    21 1   
     3     1    22 1   
     4     2     3 1   
     5     2    21 1   
     6     2    27 1   
     7     2    28 1   
     8     3     4 1   
     9     3     7 1   
    10     3     8 1   
    11     4     5 1   
    12     4    16 1   
    13     4    24 1   
    14     5     6 1   
    15     5    29 1   
    16     5    30 1   
    17     6    21 1   
    18     6    31 1   
    19     6    32 1   
    20     7    33 1   
    21     7    34 1   
    22     7    35 1   
    23     8    36 1   
    24     8    37 1   
    25     8    38 1   
    26     9    10 1   
    27     9    14 2   
    28     9    22 1   
    29    10    11 2   
    30    10    39 1   
    31    11    12 1   
    32    11    17 1   
    33    12    40 1   
    34    13    22 1   
    35    13    23 2   
    36    13    41 1   
    37    14    23 1   
    38    14    42 1   
    39    15    24 1   
    40    15    25 1   
    41    15    26 2   
    42    16    25 1   
    43    16    45 2   
    44    17    18 1   
    45    17    19 1   
    46    17    20 1   
    47    24    43 1   
    48    25    44 1   
@<TRIPOS>SUBSTRUCTURE
     1 YRM         1 TEMP              0 ****  ****    0 ROOT
