@<TRIPOS>MOLECULE
YRM
   45    48     1     0     0
SMALL
No Charge or Current Charge


@<TRIPOS>ATOM
      1 C01        -31.9710   -27.9820   -33.1230 cc         1 YRM       0.276000
      2 C03        -32.7730   -26.9290   -35.2530 c6         1 YRM       0.196800
      3 C04        -32.2290   -26.9460   -36.7170 c6         1 YRM      -0.037000
      4 C05        -31.0180   -25.9300   -36.8290 c5         1 YRM       0.046400
      5 C06        -29.9520   -26.2620   -35.7390 c6         1 YRM      -0.080400
      6 C07        -30.5600   -26.3010   -34.3190 c6         1 YRM       0.188800
      7 C08        -31.8380   -28.4170   -37.0990 c3         1 YRM      -0.087100
      8 C09        -33.3980   -26.5600   -37.6840 c3         1 YRM      -0.087100
      9 C11        -31.3930   -29.6700   -31.4960 cc         1 YRM      -0.171000
     10 C12        -32.5870   -29.5240   -30.7510 cc         1 YRM       0.000000
     11 C13        -33.4970   -28.5740   -31.1810 cd         1 YRM      -0.194300
     12 C14        -33.1590   -27.8310   -32.3950 cd         1 YRM      -0.159000
     13 C15        -29.9410   -29.3450   -33.1630 cc         1 YRM       0.356700
     14 C17        -30.3460   -30.5500   -31.3670 cd         1 YRM      -0.050400
     15 C19        -31.2010   -23.7830   -37.8230 c          1 YRM       0.618000
     16 C21        -30.3590   -25.8790   -38.2610 c          1 YRM       0.570000
     17 C24        -34.8160   -28.3300   -30.4690 c3         1 YRM       0.363300
     18 F25        -35.1280   -27.0150   -30.4220 f          1 YRM      -0.112333
     19 F26        -35.8360   -28.9570   -31.0970 f          1 YRM      -0.112333
     20 F27        -34.8070   -28.7730   -29.1910 f          1 YRM      -0.112333
     21 N02        -31.7020   -27.2500   -34.2710 nh         1 YRM      -0.795400
     22 N10        -31.0800   -28.8970   -32.5550 na         1 YRM       0.047200
     23 N16        -29.4450   -30.3430   -32.4190 nd         1 YRM      -0.550300
     24 N18        -31.4710   -24.5120   -36.7080 ns         1 YRM      -0.529900
     25 N20        -30.5720   -24.6090   -38.6600 ns         1 YRM      -0.483500
     26 O23        -31.4760   -22.6160   -38.0180 o          1 YRM      -0.541000
     27 H1         -33.1980   -25.9400   -35.0280 h1         1 YRM       0.048200
     28 H2         -33.5950   -27.6550   -35.1670 h1         1 YRM       0.048200
     29 H3         -29.4710   -27.2230   -35.9580 hc         1 YRM       0.074700
     30 H4         -29.1490   -25.5140   -35.7650 hc         1 YRM       0.074700
     31 H5         -29.7800   -26.5840   -33.5970 h1         1 YRM       0.049700
     32 H6         -30.9020   -25.2940   -34.0400 h1         1 YRM       0.049700
     33 H7         -31.0200   -28.8070   -36.4840 hc         1 YRM       0.047533
     34 H8         -32.6860   -29.0990   -36.9590 hc         1 YRM       0.047533
     35 H9         -31.5330   -28.5040   -38.1480 hc         1 YRM       0.047533
     36 H10        -33.8080   -25.5690   -37.4560 hc         1 YRM       0.047533
     37 H11        -33.0720   -26.5470   -38.7310 hc         1 YRM       0.047533
     38 H12        -34.2290   -27.2720   -37.6110 hc         1 YRM       0.047533
     39 H13        -32.7690   -30.1620   -29.8900 ha         1 YRM       0.149000
     40 H14        -33.8770   -27.1040   -32.7580 ha         1 YRM       0.139000
     41 H15        -29.5390   -28.9360   -34.0810 h5         1 YRM       0.078800
     42 H16        -30.2100   -31.3290   -30.6150 h4         1 YRM       0.235000
     43 H17        -31.9760   -24.0830   -35.9410 hn         1 YRM       0.348500
     44 H18        -30.2490   -24.2850   -39.5570 hn         1 YRM       0.358500
     45 O22        -29.7450   -26.7210   -38.8990 o          1 YRM      -0.498000
@<TRIPOS>BOND
     1     1    12 2   
     2     1    21 1   
     3     1    22 1   
     4     2     3 1   
     5     2    21 1   
     6     2    27 1   
     7     2    28 1   
     8     3     4 1   
     9     3     7 1   
    10     3     8 1   
    11     4     5 1   
    12     4    16 1   
    13     4    24 1   
    14     5     6 1   
    15     5    29 1   
    16     5    30 1   
    17     6    21 1   
    18     6    31 1   
    19     6    32 1   
    20     7    33 1   
    21     7    34 1   
    22     7    35 1   
    23     8    36 1   
    24     8    37 1   
    25     8    38 1   
    26     9    10 1   
    27     9    14 2   
    28     9    22 1   
    29    10    11 2   
    30    10    39 1   
    31    11    12 1   
    32    11    17 1   
    33    12    40 1   
    34    13    22 1   
    35    13    23 2   
    36    13    41 1   
    37    14    23 1   
    38    14    42 1   
    39    15    24 1   
    40    15    25 1   
    41    15    26 2   
    42    16    25 1   
    43    16    45 2   
    44    17    18 1   
    45    17    19 1   
    46    17    20 1   
    47    24    43 1   
    48    25    44 1   
@<TRIPOS>SUBSTRUCTURE
     1 YRM         1 TEMP              0 ****  ****    0 ROOT
