@<TRIPOS>MOLECULE
YRO
   32    32     1     0     0
SMALL
No Charge or Current Charge


@<TRIPOS>ATOM
      1 OAD         -1.7500    -3.1520    -0.2980 o          1 YRO      -0.688000
      2 CAL         -0.8980    -2.3200    -0.0020 c          1 YRO       0.717200
      3 OAG          0.2570    -2.6450     0.2320 o          1 YRO      -0.688000
      4 CAN         -1.3330    -0.8620     0.0520 cc         1 YRO       0.023400
      5 NAJ         -2.6720    -0.6350    -0.2660 ns         1 YRO      -0.494600
      6 CAO         -3.2980     0.5650    -0.3120 c          1 YRO       0.605000
      7 OAE         -4.4720     0.6830    -0.6000 o          1 YRO      -0.613000
      8 NAK         -2.5010     1.6160    -0.0120 ns         1 YRO      -0.471500
      9 CAP         -1.1820     1.6080     0.3250 c          1 YRO       0.576200
     10 OAF         -0.6050     2.6570     0.5640 o          1 YRO      -0.590000
     11 CAM         -0.5510     0.2520     0.3680 cd         1 YRO      -0.287400
     12 CAH          0.9230     0.2430     0.7560 c3         1 YRO       0.013800
     13 CAI          1.8500     0.3270    -0.4850 c3         1 YRO      -0.060400
     14 CAQ          3.3920     0.3470    -0.2200 c3         1 YRO      -0.043000
     15 CAB          3.7960     1.5830     0.6280 c3         1 YRO      -0.078767
     16 CAC          3.8500    -0.9480     0.5050 c3         1 YRO      -0.078767
     17 CAA          4.1200     0.4300    -1.5890 c3         1 YRO      -0.078767
     18 H2          -2.9410     2.5210    -0.0420 hn         1 YRO       0.317500
     19 H4           1.1420     1.0790     1.4280 hc         1 YRO       0.054700
     20 H5           1.1600    -0.6450     1.3500 hc         1 YRO       0.054700
     21 H6           1.6170    -0.5190    -1.1440 hc         1 YRO       0.041700
     22 H7           1.5800     1.2280    -1.0500 hc         1 YRO       0.041700
     23 H8           3.3870     1.5260     1.6430 hc         1 YRO       0.026478
     24 H9           4.8870     1.6540     0.7190 hc         1 YRO       0.026478
     25 H10          3.4360     2.5110     0.1660 hc         1 YRO       0.026478
     26 H11          3.5330    -1.8400    -0.0490 hc         1 YRO       0.026478
     27 H12          4.9430    -0.9780     0.5960 hc         1 YRO       0.026478
     28 H13          3.4350    -1.0100     1.5170 hc         1 YRO       0.026478
     29 H14          3.8340     1.3390    -2.1320 hc         1 YRO       0.026478
     30 H15          5.2090     0.4460    -1.4560 hc         1 YRO       0.026478
     31 H16          3.8710    -0.4330    -2.2190 hc         1 YRO       0.026478
     32 H17         -3.2590    -1.4310    -0.4960 hn         1 YRO       0.489000
@<TRIPOS>BOND
     1     1     2 1   
     2     2     3 1   
     3     2     4 1   
     4     4     5 1   
     5     4    11 2   
     6     5     6 1   
     7     5    32 1   
     8     6     7 2   
     9     6     8 1   
    10     8     9 1   
    11     8    18 1   
    12     9    10 2   
    13     9    11 1   
    14    11    12 1   
    15    12    13 1   
    16    12    19 1   
    17    12    20 1   
    18    13    14 1   
    19    13    21 1   
    20    13    22 1   
    21    14    15 1   
    22    14    16 1   
    23    14    17 1   
    24    15    23 1   
    25    15    24 1   
    26    15    25 1   
    27    16    26 1   
    28    16    27 1   
    29    16    28 1   
    30    17    29 1   
    31    17    30 1   
    32    17    31 1   
@<TRIPOS>SUBSTRUCTURE
     1 YRO         1 TEMP              0 ****  ****    0 ROOT
