@<TRIPOS>MOLECULE
YRO
   32    32     1     0     0
SMALL
abcg2


@<TRIPOS>ATOM
      1 OAD         -1.8670    -3.0850     0.1700 o          1 YRO      -0.688000
      2 CAL         -0.9020    -2.3000     0.2360 c          1 YRO       0.717200
      3 OAG          0.2980    -2.5720     0.3470 o          1 YRO      -0.688000
      4 CAN         -1.2970    -0.8120     0.1460 cc         1 YRO       0.023400
      5 NAJ         -2.6140    -0.6620    -0.2010 ns         1 YRO      -0.494600
      6 CAO         -3.2510     0.5200    -0.3840 c          1 YRO       0.605000
      7 OAE         -4.4230     0.6200    -0.6990 o          1 YRO      -0.613000
      8 NAK         -2.4390     1.6040    -0.1800 ns         1 YRO      -0.471500
      9 CAP         -1.1060     1.5870     0.1870 c          1 YRO       0.576200
     10 OAF         -0.5140     2.6440     0.3380 o          1 YRO      -0.590000
     11 CAM         -0.5080     0.2690     0.3640 cd         1 YRO      -0.287400
     12 CAH          0.9450     0.2450     0.7390 c3         1 YRO       0.013800
     13 CAI          1.8450     0.3750    -0.4910 c3         1 YRO      -0.060400
     14 CAQ          3.3580     0.3520    -0.2240 c3         1 YRO      -0.043000
     15 CAB          3.7590     1.4720     0.7370 c3         1 YRO      -0.078767
     16 CAC          3.7890    -0.9980     0.3490 c3         1 YRO      -0.078767
     17 CAA          4.0730     0.5680    -1.5600 c3         1 YRO      -0.078767
     18 H2          -2.8620     2.5130    -0.3160 hn         1 YRO       0.317500
     19 H4           1.1330     1.0750     1.4230 hc         1 YRO       0.054700
     20 H5           1.1730    -0.6750     1.2680 hc         1 YRO       0.054700
     21 H6           1.6030    -0.4380    -1.1830 hc         1 YRO       0.041700
     22 H7           1.6010     1.3090    -1.0070 hc         1 YRO       0.041700
     23 H8           3.3650     1.3100     1.7430 hc         1 YRO       0.026478
     24 H9           4.8460     1.5390     0.8230 hc         1 YRO       0.026478
     25 H10          3.3930     2.4410     0.3900 hc         1 YRO       0.026478
     26 H11          3.5110    -1.8160    -0.3190 hc         1 YRO       0.026478
     27 H12          4.8720    -1.0340     0.4850 hc         1 YRO       0.026478
     28 H13          3.3320    -1.1990     1.3200 hc         1 YRO       0.026478
     29 H14          3.8080     1.5320    -2.0010 hc         1 YRO       0.026478
     30 H15          5.1580     0.5490    -1.4320 hc         1 YRO       0.026478
     31 H16          3.8110    -0.2100    -2.2810 hc         1 YRO       0.026478
     32 H17         -3.1320    -1.5270    -0.3090 hn         1 YRO       0.489000
@<TRIPOS>BOND
     1     1     2 1   
     2     2     3 1   
     3     2     4 1   
     4     4     5 1   
     5     4    11 2   
     6     5     6 1   
     7     5    32 1   
     8     6     7 2   
     9     6     8 1   
    10     8     9 1   
    11     8    18 1   
    12     9    10 2   
    13     9    11 1   
    14    11    12 1   
    15    12    13 1   
    16    12    19 1   
    17    12    20 1   
    18    13    14 1   
    19    13    21 1   
    20    13    22 1   
    21    14    15 1   
    22    14    16 1   
    23    14    17 1   
    24    15    23 1   
    25    15    24 1   
    26    15    25 1   
    27    16    26 1   
    28    16    27 1   
    29    16    28 1   
    30    17    29 1   
    31    17    30 1   
    32    17    31 1   
@<TRIPOS>SUBSTRUCTURE
     1 YRO         1 TEMP              0 ****  ****    0 ROOT
