@<TRIPOS>MOLECULE
YRP
   49    53     1     0     0
SMALL
No Charge or Current Charge


@<TRIPOS>ATOM
      1 C14         18.4940     5.1900   -12.5350 ca         1 YRP      -0.134000
      2 C11         18.6540     2.8110   -12.0590 ca         1 YRP       0.074400
      3 C10         19.1500     3.9510   -12.6310 ca         1 YRP      -0.080200
      4 C13         20.4920     2.2380   -13.0250 cc         1 YRP       0.423700
      5 C01         21.4520     4.0630   -15.4990 c5         1 YRP      -0.064900
      6 C02         21.2290     4.4800   -14.0070 c5         1 YRP       0.075300
      7 C03         22.6830     4.5670   -13.4350 c5         1 YRP      -0.064900
      8 C04         23.5650     4.9810   -14.6290 cx         1 YRP      -0.123200
      9 C05         22.8110     4.6750   -15.8930 cx         1 YRP      -0.123200
     10 C06         23.0510     6.1230   -15.4940 cx         1 YRP      -0.102700
     11 C07         23.9870     7.0520   -16.2880 c3         1 YRP      -0.116700
     12 C08         25.0940     6.3130   -17.0840 c          1 YRP       0.608100
     13 C15         17.2830     5.2310   -11.8160 ca         1 YRP       0.149000
     14 C16         16.7630     4.0540   -11.2210 ca         1 YRP       0.112000
     15 C17         17.4510     2.8290   -11.3390 ca         1 YRP      -0.066000
     16 C22         27.4250     5.2970   -16.6940 ca         1 YRP      -0.020000
     17 C23         27.6070     4.6130   -17.9180 ca         1 YRP      -0.144000
     18 C24         28.8180     3.9480   -18.1860 ca         1 YRP      -0.074500
     19 C25         29.8510     3.9570   -17.2370 ca         1 YRP       0.092000
     20 C26         29.6770     4.6260   -16.0160 ca         1 YRP      -0.074500
     21 C27         28.4670     5.2900   -15.7460 ca         1 YRP      -0.144000
     22 C29         24.5490     8.1790   -15.3820 c3         1 YRP      -0.093100
     23 F18         16.6190     6.4040   -11.6990 f          1 YRP      -0.162000
     24 F19         15.5990     4.0980   -10.5310 f          1 YRP      -0.163000
     25 N09         20.3190     3.6110   -13.2520 na         1 YRP      -0.167600
     26 N12         19.4820     1.7210   -12.2940 nd         1 YRP      -0.565100
     27 N21         26.2280     5.9820   -16.3510 ns         1 YRP      -0.145000
     28 O20         24.9770     6.1060   -18.2870 o          1 YRP      -0.577100
     29 Cl28        31.3630     3.1230   -17.5750 cl         1 YRP      -0.201000
     30 H1          18.8950     6.0900   -12.9920 ha         1 YRP       0.137000
     31 H2          21.3470     1.6930   -13.4070 h5         1 YRP       0.065800
     32 H3          20.6360     4.4110   -16.1420 hc         1 YRP       0.064200
     33 H4          21.4890     2.9730   -15.6050 hc         1 YRP       0.064200
     34 H5          20.8020     5.4900   -14.0000 h1         1 YRP       0.068700
     35 H6          23.0140     3.5970   -13.0450 hc         1 YRP       0.064200
     36 H7          22.7470     5.2760   -12.6030 hc         1 YRP       0.064200
     37 H8          24.6320     4.7790   -14.5940 hc         1 YRP       0.104200
     38 H9          23.3550     4.2630   -16.7410 hc         1 YRP       0.104200
     39 H10         22.2010     6.6900   -15.1190 hc         1 YRP       0.081700
     40 H11         23.3590     7.5290   -17.0510 hc         1 YRP       0.089700
     41 H12         17.0590     1.9230   -10.8860 ha         1 YRP       0.151000
     42 H13         26.8240     4.5760   -18.6680 ha         1 YRP       0.132500
     43 H14         28.9530     3.4240   -19.1290 ha         1 YRP       0.130500
     44 H15         30.4770     4.6290   -15.2790 ha         1 YRP       0.130500
     45 H16         28.3430     5.8050   -14.7960 ha         1 YRP       0.132500
     46 H17         23.7310     8.7780   -14.9630 hc         1 YRP       0.043700
     47 H18         25.1260     7.7680   -14.5440 hc         1 YRP       0.043700
     48 H19         25.1990     8.8510   -15.9550 hc         1 YRP       0.043700
     49 H20         26.1870     6.2700   -15.3820 hn         1 YRP       0.154000
@<TRIPOS>BOND
     1     1     3 ar  
     2     1    13 ar  
     3     1    30 1   
     4     2     3 ar  
     5     2    15 ar  
     6     2    26 1   
     7     3    25 1   
     8     4    25 1   
     9     4    26 2   
    10     4    31 1   
    11     5     6 1   
    12     5     9 1   
    13     5    32 1   
    14     5    33 1   
    15     6     7 1   
    16     6    25 1   
    17     6    34 1   
    18     7     8 1   
    19     7    35 1   
    20     7    36 1   
    21     8     9 1   
    22     8    10 1   
    23     8    37 1   
    24     9    10 1   
    25     9    38 1   
    26    10    11 1   
    27    10    39 1   
    28    11    12 1   
    29    11    22 1   
    30    11    40 1   
    31    12    27 1   
    32    12    28 2   
    33    13    14 ar  
    34    13    23 1   
    35    14    15 ar  
    36    14    24 1   
    37    15    41 1   
    38    16    17 ar  
    39    16    21 ar  
    40    16    27 1   
    41    17    18 ar  
    42    17    42 1   
    43    18    19 ar  
    44    18    43 1   
    45    19    20 ar  
    46    19    29 1   
    47    20    21 ar  
    48    20    44 1   
    49    21    45 1   
    50    22    46 1   
    51    22    47 1   
    52    22    48 1   
    53    27    49 1   
@<TRIPOS>SUBSTRUCTURE
     1 YRP         1 TEMP              0 ****  ****    0 ROOT
