@<TRIPOS>MOLECULE
YRP
   49    53     1     0     0
SMALL
abcg2


@<TRIPOS>ATOM
      1 C14         18.2900     4.9860   -13.2320 ca         1 YRP      -0.134000
      2 C11         18.6450     2.9670   -11.8860 ca         1 YRP       0.074400
      3 C10         19.1250     4.0130   -12.6890 ca         1 YRP      -0.080200
      4 C13         20.7360     2.6870   -12.0580 cc         1 YRP       0.423700
      5 C01         21.4790     4.1750   -15.0370 c5         1 YRP      -0.064900
      6 C02         21.3930     4.6150   -13.5660 c5         1 YRP       0.075300
      7 C03         22.8440     4.6410   -13.0590 c5         1 YRP      -0.064900
      8 C04         23.6520     4.9900   -14.2880 cx         1 YRP      -0.123200
      9 C05         22.8160     4.7020   -15.5060 cx         1 YRP      -0.123200
     10 C06         23.1680     6.1170   -15.1530 cx         1 YRP      -0.102700
     11 C07         24.1240     6.9780   -15.9640 c3         1 YRP      -0.116700
     12 C08         25.0740     6.1660   -16.8340 c          1 YRP       0.608100
     13 C15         16.9550     4.8720   -12.9250 ca         1 YRP       0.149000
     14 C16         16.4620     3.8410   -12.1170 ca         1 YRP       0.112000
     15 C17         17.2840     2.8780   -11.5880 ca         1 YRP      -0.066000
     16 C22         27.3900     5.2580   -16.8820 ca         1 YRP      -0.020000
     17 C23         27.3860     4.6840   -18.1550 ca         1 YRP      -0.144000
     18 C24         28.5330     4.0780   -18.6490 ca         1 YRP      -0.074500
     19 C25         29.6850     4.0340   -17.8850 ca         1 YRP       0.092000
     20 C26         29.7040     4.5890   -16.6150 ca         1 YRP      -0.074500
     21 C27         28.5620     5.1950   -16.1230 ca         1 YRP      -0.144000
     22 C29         24.7950     8.0070   -15.0560 c3         1 YRP      -0.093100
     23 F18         16.0810     5.7650   -13.4080 f          1 YRP      -0.162000
     24 F19         15.1440     3.8130   -11.8700 f          1 YRP      -0.163000
     25 N09         20.4790     3.8140   -12.7720 na         1 YRP      -0.167600
     26 N12         19.6820     2.1540   -11.5080 nd         1 YRP      -0.565100
     27 N21         26.2980     5.9100   -16.3030 ns         1 YRP      -0.145000
     28 O20         24.7290     5.7800   -17.9360 o          1 YRP      -0.577100
     29 CL28        31.1140     3.2850   -18.5190 cl         1 YRP      -0.201000
     30 H1          18.6440     5.7890   -13.8640 ha         1 YRP       0.137000
     31 H2          21.7350     2.2870   -11.9660 h5         1 YRP       0.065800
     32 H3          20.6300     4.5380   -15.6200 hc         1 YRP       0.064200
     33 H4          21.4790     3.0840   -15.0940 hc         1 YRP       0.064200
     34 H5          21.0030     5.6330   -13.5180 h1         1 YRP       0.068700
     35 H6          23.1630     3.6580   -12.7050 hc         1 YRP       0.064200
     36 H7          22.9660     5.3420   -12.2320 hc         1 YRP       0.064200
     37 H8          24.7110     4.7590   -14.2760 hc         1 YRP       0.104200
     38 H9          23.2520     4.2490   -16.3870 hc         1 YRP       0.104200
     39 H10         22.3690     6.7330   -14.7470 hc         1 YRP       0.081700
     40 H11         23.5130     7.5210   -16.6890 hc         1 YRP       0.089700
     41 H12         16.8860     2.0850   -10.9680 ha         1 YRP       0.151000
     42 H13         26.5040     4.7030   -18.7710 ha         1 YRP       0.132500
     43 H14         28.5150     3.6410   -19.6390 ha         1 YRP       0.130500
     44 H15         30.5990     4.5570   -16.0090 ha         1 YRP       0.130500
     45 H16         28.5870     5.6330   -15.1320 ha         1 YRP       0.132500
     46 H17         24.0330     8.6450   -14.6080 hc         1 YRP       0.043700
     47 H18         25.3390     7.5460   -14.2290 hc         1 YRP       0.043700
     48 H19         25.4820     8.6510   -15.6050 hc         1 YRP       0.043700
     49 H20         26.4750     6.2810   -15.3820 hn         1 YRP       0.154000
@<TRIPOS>BOND
     1     1     3 ar  
     2     1    13 ar  
     3     1    30 1   
     4     2     3 ar  
     5     2    15 ar  
     6     2    26 1   
     7     3    25 1   
     8     4    25 1   
     9     4    26 2   
    10     4    31 1   
    11     5     6 1   
    12     5     9 1   
    13     5    32 1   
    14     5    33 1   
    15     6     7 1   
    16     6    25 1   
    17     6    34 1   
    18     7     8 1   
    19     7    35 1   
    20     7    36 1   
    21     8     9 1   
    22     8    10 1   
    23     8    37 1   
    24     9    10 1   
    25     9    38 1   
    26    10    11 1   
    27    10    39 1   
    28    11    12 1   
    29    11    22 1   
    30    11    40 1   
    31    12    27 1   
    32    12    28 2   
    33    13    14 ar  
    34    13    23 1   
    35    14    15 ar  
    36    14    24 1   
    37    15    41 1   
    38    16    17 ar  
    39    16    21 ar  
    40    16    27 1   
    41    17    18 ar  
    42    17    42 1   
    43    18    19 ar  
    44    18    43 1   
    45    19    20 ar  
    46    19    29 1   
    47    20    21 ar  
    48    20    44 1   
    49    21    45 1   
    50    22    46 1   
    51    22    47 1   
    52    22    48 1   
    53    27    49 1   
@<TRIPOS>SUBSTRUCTURE
     1 YRP         1 TEMP              0 ****  ****    0 ROOT
