@<TRIPOS>MOLECULE
YRQ
   15    14     1     0     0
SMALL
No Charge or Current Charge


@<TRIPOS>ATOM
      1 C1          -7.5130     7.5900    -9.3360 c3         1 YRQ      -0.023100
      2 O1          -5.7630     5.4150   -10.3500 oh         1 YRQ      -0.628000
      3 C2          -6.0880     7.8080    -9.9000 c3         1 YRQ      -0.359700
      4 C3          -5.1740     6.5760    -9.7690 c3         1 YRQ       0.214600
      5 P1          -6.0710     8.5570   -11.5930 p5         1 YRQ       1.300500
      6 O3          -6.6740     9.9190   -11.5030 o          1 YRQ      -0.932833
      7 O4          -6.8650     7.7240   -12.5430 o          1 YRQ      -0.932833
      8 H1          -7.4660     7.2060    -8.3090 hc         1 YRQ      -0.008633
      9 H2          -8.0700     8.5340    -9.3140 hc         1 YRQ      -0.008633
     10 H3          -8.0800     6.8760    -9.9440 hc         1 YRQ      -0.008633
     11 H4          -5.1270     4.6830   -10.2120 ho         1 YRQ       0.371000
     12 H5          -5.6270     8.5900    -9.2850 hc         1 YRQ       0.014700
     13 H6          -4.9970     6.3880    -8.7020 h1         1 YRQ      -0.033300
     14 H7          -4.1970     6.7750   -10.2270 h1         1 YRQ      -0.033300
     15 O2          -4.6620     8.6770   -12.0680 o          1 YRQ      -0.932833
@<TRIPOS>BOND
     1     1     3 1   
     2     1     8 1   
     3     1     9 1   
     4     1    10 1   
     5     2     4 1   
     6     2    11 1   
     7     3     4 1   
     8     3     5 1   
     9     3    12 1   
    10     4    13 1   
    11     4    14 1   
    12     5     6 1   
    13     5     7 1   
    14     5    15 1   
@<TRIPOS>SUBSTRUCTURE
     1 YRQ         1 TEMP              0 ****  ****    0 ROOT
