@<TRIPOS>MOLECULE
YRQ
   15    14     1     0     0
SMALL
abcg2


@<TRIPOS>ATOM
      1 C1          -7.4750     7.5860    -9.3500 c3         1 YRQ      -0.023100
      2 O1          -5.6760     5.4910   -10.4760 oh         1 YRQ      -0.628000
      3 C2          -6.0740     7.8170    -9.9100 c3         1 YRQ      -0.359700
      4 C3          -5.1900     6.5950    -9.7340 c3         1 YRQ       0.214600
      5 P1          -6.1020     8.5530   -11.6480 p5         1 YRQ       1.300500
      6 O3          -6.6110     9.9900   -11.4270 o          1 YRQ      -0.932833
      7 O4          -7.0630     7.6930   -12.4830 o          1 YRQ      -0.932833
      8 H1          -7.4530     7.2460    -8.3100 hc         1 YRQ      -0.008633
      9 H2          -8.0610     8.5060    -9.3810 hc         1 YRQ      -0.008633
     10 H3          -8.0200     6.8380    -9.9280 hc         1 YRQ      -0.008633
     11 H4          -5.1030     4.7420   -10.2940 ho         1 YRQ       0.371000
     12 H5          -5.5950     8.5830    -9.2840 hc         1 YRQ       0.014700
     13 H6          -5.1410     6.3350    -8.6630 h1         1 YRQ      -0.033300
     14 H7          -4.1680     6.8530   -10.0400 h1         1 YRQ      -0.033300
     15 O2          -4.6430     8.4890   -12.1280 o          1 YRQ      -0.932833
@<TRIPOS>BOND
     1     1     3 1   
     2     1     8 1   
     3     1     9 1   
     4     1    10 1   
     5     2     4 1   
     6     2    11 1   
     7     3     4 1   
     8     3     5 1   
     9     3    12 1   
    10     4    13 1   
    11     4    14 1   
    12     5     6 1   
    13     5     7 1   
    14     5    15 1   
@<TRIPOS>SUBSTRUCTURE
     1 YRQ         1 TEMP              0 ****  ****    0 ROOT
