@<TRIPOS>MOLECULE
YRT
   68    73     1     0     0
SMALL
No Charge or Current Charge


@<TRIPOS>ATOM
      1 C10        -21.4200   -13.5030     7.6650 ca         1 YRT      -0.133000
      2 C11        -20.7470   -13.7080     6.4470 ca         1 YRT      -0.075000
      3 N13        -19.3900   -12.8290     4.6010 nu         1 YRT      -0.905100
      4 O16        -17.7920   -13.5560     2.8810 o          1 YRT      -0.540500
      5 C17        -16.9870   -14.0050     5.4080 cy         1 YRT      -0.425700
      6 C18        -16.4480   -12.6430     5.9200 cy         1 YRT       0.192600
      7 C21        -20.1200   -11.3670     6.4180 ca         1 YRT       0.147000
      8 C24        -22.8710   -10.9210    10.0040 cc         1 YRT      -0.043300
      9 C25        -23.4100    -9.7760     9.1990 c          1 YRT       0.720200
     10 C31        -25.1440   -13.7470    14.6490 c5         1 YRT       0.087000
     11 C34        -28.6830   -13.4070    15.3550 cy         1 YRT      -0.079700
     12 C35        -29.8030   -14.0850    16.1590 c3         1 YRT       0.160800
     13 C37        -27.3350   -13.0830    16.0830 cy         1 YRT      -0.077900
     14 C39        -25.4380   -11.5450    13.7890 c          1 YRT       0.690100
     15 C01        -22.4080   -12.4880    15.6300 c3         1 YRT      -0.094100
     16 C02        -23.0800   -12.1900    14.2700 c3         1 YRT       0.188000
     17 C03        -22.4190   -12.8960    13.0760 ca         1 YRT      -0.132300
     18 C04        -21.7290   -14.1290    13.2040 ca         1 YRT      -0.110000
     19 C05        -21.1050   -14.7290    12.0870 ca         1 YRT      -0.165000
     20 C06        -21.1680   -14.1230    10.8180 ca         1 YRT      -0.065000
     21 C07        -21.8910   -12.9250    10.6980 ca         1 YRT      -0.083800
     22 C08        -22.1430   -12.0420     9.5680 cd         1 YRT      -0.164400
     23 C09        -21.4540   -12.2320     8.2720 ca         1 YRT       0.094200
     24 C12        -20.0730   -12.6450     5.8150 ca         1 YRT       0.176000
     25 C20        -17.3100   -14.2420     6.9090 cy         1 YRT       0.192600
     26 C23        -20.7940   -11.1660     7.6320 ca         1 YRT      -0.100000
     27 C29        -22.4800   -12.3350    11.7840 ca         1 YRT      -0.057200
     28 C32        -26.6320   -13.2780    14.6920 cy         1 YRT       0.137000
     29 C33        -27.8030   -14.2800    14.3970 cy         1 YRT      -0.077900
     30 F22        -19.4860   -10.3180     5.8380 f          1 YRT      -0.189000
     31 N28        -23.0780   -11.1540    11.3800 na         1 YRT      -0.190700
     32 N30        -24.5320   -12.4520    14.3110 n          1 YRT      -0.443800
     33 N36        -30.9500   -14.5590    15.3660 n8         1 YRT      -0.993200
     34 O15        -19.0630   -15.2800     4.2280 o          1 YRT      -0.540500
     35 O19        -16.1790   -13.3420     7.1880 oq         1 YRT      -0.437000
     36 O26        -23.3190    -9.7730     7.9800 o          1 YRT      -0.692000
     37 O27        -23.9920    -8.8890     9.8080 o          1 YRT      -0.692000
     38 O38        -26.6740   -12.0880    13.8880 os         1 YRT      -0.404100
     39 S14        -18.3160   -14.0230     4.1650 s6         1 YRT       1.232100
     40 H101       -21.9500   -14.3340     8.1210 ha         1 YRT       0.121000
     41 H111       -20.7650   -14.6950     5.9980 ha         1 YRT       0.123000
     42 H131       -19.0090   -11.9980     4.1650 hn         1 YRT       0.507000
     43 H171       -16.1850   -14.6600     5.0630 h1         1 YRT       0.115700
     44 H181       -15.5360   -12.2730     5.4360 h1         1 YRT       0.059950
     45 H182       -17.1920   -11.8460     6.0480 h1         1 YRT       0.059950
     46 H312       -24.7840   -14.1430    15.6070 h1         1 YRT       0.061700
     47 H311       -24.9470   -14.4910    13.8660 h1         1 YRT       0.061700
     48 H341       -29.1180   -12.5300    14.8590 hc         1 YRT       0.069700
     49 H351       -29.3740   -14.9440    16.6940 h1         1 YRT       0.025200
     50 H352       -30.1700   -13.3680    16.9070 h1         1 YRT       0.025200
     51 H372       -27.2550   -12.0830    16.5220 hc         1 YRT       0.064200
     52 H371       -27.0400   -13.8160    16.8430 hc         1 YRT       0.064200
     53 H012       -22.8440   -11.8560    16.4120 hc         1 YRT       0.037367
     54 H011       -22.5400   -13.5330    15.9310 hc         1 YRT       0.037367
     55 H013       -21.3330   -12.2740    15.5810 hc         1 YRT       0.037367
     56 H021       -22.9330   -11.1120    14.1180 h1         1 YRT       0.084700
     57 H041       -21.6580   -14.6300    14.1650 ha         1 YRT       0.090000
     58 H051       -20.5630   -15.6640    12.2100 ha         1 YRT       0.094000
     59 H061       -20.6610   -14.5770     9.9720 ha         1 YRT       0.109000
     60 H202       -18.2500   -13.8250     7.2840 h1         1 YRT       0.059950
     61 H201       -17.1440   -15.2600     7.2810 h1         1 YRT       0.059950
     62 H231       -20.7750   -10.1810     8.0880 ha         1 YRT       0.155000
     63 H331       -27.6200   -15.3010    14.7510 hc         1 YRT       0.064200
     64 H332       -28.1360   -14.3300    13.3550 hc         1 YRT       0.064200
     65 H281       -23.6540   -10.5630    11.9750 hn         1 YRT       0.391000
     66 H362       -31.6650   -14.9320    16.0020 hn         1 YRT       0.390000
     67 H1         -31.4100   -13.7510    14.9300 hn         1 YRT       0.390000
     68 O40        -25.1760   -10.4570    13.3000 o          1 YRT      -0.529000
@<TRIPOS>BOND
     1     1     2 ar  
     2     1    23 ar  
     3     1    40 1   
     4     2    24 ar  
     5     2    41 1   
     6     3    24 1   
     7     3    39 1   
     8     3    42 1   
     9     4    39 2   
    10     5     6 1   
    11     5    25 1   
    12     5    39 1   
    13     5    43 1   
    14     6    35 1   
    15     6    44 1   
    16     6    45 1   
    17     7    24 ar  
    18     7    26 ar  
    19     7    30 1   
    20     8     9 1   
    21     8    22 2   
    22     8    31 1   
    23     9    36 1   
    24     9    37 1   
    25    10    28 1   
    26    10    32 1   
    27    10    46 1   
    28    10    47 1   
    29    11    12 1   
    30    11    13 1   
    31    11    29 1   
    32    11    48 1   
    33    12    33 1   
    34    12    49 1   
    35    12    50 1   
    36    13    28 1   
    37    13    51 1   
    38    13    52 1   
    39    14    32 1   
    40    14    38 1   
    41    14    68 2   
    42    15    16 1   
    43    15    53 1   
    44    15    54 1   
    45    15    55 1   
    46    16    17 1   
    47    16    32 1   
    48    16    56 1   
    49    17    18 ar  
    50    17    27 ar  
    51    18    19 ar  
    52    18    57 1   
    53    19    20 ar  
    54    19    58 1   
    55    20    21 ar  
    56    20    59 1   
    57    21    22 1   
    58    21    27 ar  
    59    22    23 1   
    60    23    26 ar  
    61    25    35 1   
    62    25    60 1   
    63    25    61 1   
    64    26    62 1   
    65    27    31 1   
    66    28    29 1   
    67    28    38 1   
    68    29    63 1   
    69    29    64 1   
    70    31    65 1   
    71    33    66 1   
    72    33    67 1   
    73    34    39 2   
@<TRIPOS>SUBSTRUCTURE
     1 YRT         1 TEMP              0 ****  ****    0 ROOT
