@<TRIPOS>MOLECULE
YRT
   68    73     1     0     0
SMALL
abcg2


@<TRIPOS>ATOM
      1 C10        -21.6080   -13.5470     8.1610 ca         1 YRT      -0.133000
      2 C11        -21.1440   -13.8610     6.8940 ca         1 YRT      -0.075000
      3 N13        -19.8800   -13.2420     4.8910 nu         1 YRT      -0.905100
      4 O16        -18.9830   -14.5820     3.0190 o          1 YRT      -0.540500
      5 C17        -17.1770   -13.9670     4.7870 cy         1 YRT      -0.425700
      6 C18        -16.7470   -12.5680     4.3410 cy         1 YRT       0.192600
      7 C21        -20.0100   -11.7730     6.8280 ca         1 YRT       0.147000
      8 C24        -22.4530   -10.9000    10.5720 cc         1 YRT      -0.043300
      9 C25        -22.9270    -9.6300     9.8990 c          1 YRT       0.720200
     10 C31        -25.2150   -13.4900    14.5400 c5         1 YRT       0.087000
     11 C34        -28.7350   -13.3750    14.8800 cy         1 YRT      -0.079700
     12 C35        -29.6860   -14.4280    15.3980 c3         1 YRT       0.160800
     13 C37        -27.5250   -13.0060    15.7620 cy         1 YRT      -0.077900
     14 C39        -25.2740   -11.2290    14.1260 c          1 YRT       0.690100
     15 C01        -22.6470   -12.6060    16.1300 c3         1 YRT      -0.094100
     16 C02        -23.0560   -12.1420    14.7390 c3         1 YRT       0.188000
     17 C03        -22.3540   -12.8610    13.6070 ca         1 YRT      -0.132300
     18 C04        -21.7790   -14.1110    13.7360 ca         1 YRT      -0.110000
     19 C05        -21.1630   -14.7630    12.6530 ca         1 YRT      -0.165000
     20 C06        -21.1130   -14.1820    11.4040 ca         1 YRT      -0.065000
     21 C07        -21.6930   -12.9200    11.2270 ca         1 YRT      -0.083800
     22 C08        -21.8060   -12.0280    10.1090 cd         1 YRT      -0.164400
     23 C09        -21.2990   -12.3280     8.7680 ca         1 YRT       0.094200
     24 C12        -20.3240   -12.9760     6.2030 ca         1 YRT       0.176000
     25 C20        -16.8230   -13.4800     6.1920 cy         1 YRT       0.192600
     26 C23        -20.4810   -11.4360     8.0750 ca         1 YRT      -0.100000
     27 C29        -22.2930   -12.2800    12.3320 ca         1 YRT      -0.057200
     28 C32        -26.6530   -12.9980    14.4960 cy         1 YRT       0.137000
     29 C33        -27.7460   -13.7790    13.7680 cy         1 YRT      -0.077900
     30 F22        -19.2230   -10.9040     6.1760 f          1 YRT      -0.189000
     31 N28        -22.7330   -11.0680    11.8980 na         1 YRT      -0.190700
     32 N30        -24.4980   -12.2360    14.5740 n          1 YRT      -0.443800
     33 N36        -30.6200   -14.8310    14.3570 n8         1 YRT      -0.993200
     34 O15        -19.1400   -15.5990     5.3230 o          1 YRT      -0.540500
     35 O19        -16.4230   -12.2050     5.6850 oq         1 YRT      -0.437000
     36 O26        -22.8080    -9.5630     8.6660 o          1 YRT      -0.692000
     37 O27        -23.4050    -8.7790    10.6750 o          1 YRT      -0.692000
     38 O38        -26.5320   -11.6640    13.9740 os         1 YRT      -0.404100
     39 S14        -18.8600   -14.4650     4.4610 s6         1 YRT       1.232100
     40 H101       -22.2560   -14.2490     8.6690 ha         1 YRT       0.121000
     41 H111       -21.4380   -14.7890     6.4260 ha         1 YRT       0.123000
     42 H131       -19.9260   -12.4840     4.2200 hn         1 YRT       0.507000
     43 H171       -16.5650   -14.7880     4.4090 h1         1 YRT       0.115700
     44 H181       -15.8810   -12.5620     3.6780 h1         1 YRT       0.059950
     45 H182       -17.5250   -11.9350     3.9070 h1         1 YRT       0.059950
     46 H312       -25.0260   -14.1020    15.4220 h1         1 YRT       0.061700
     47 H311       -24.9540   -14.0780    13.6530 h1         1 YRT       0.061700
     48 H341       -29.2920   -12.4770    14.5940 hc         1 YRT       0.069700
     49 H351       -29.1050   -15.3060    15.6970 h1         1 YRT       0.025200
     50 H352       -30.1720   -14.0530    16.3110 h1         1 YRT       0.025200
     51 H372       -27.5630   -12.0840    16.3440 hc         1 YRT       0.064200
     52 H371       -27.2450   -13.8290    16.4240 hc         1 YRT       0.064200
     53 H012       -23.1500   -11.9990    16.8820 hc         1 YRT       0.037367
     54 H011       -22.9000   -13.6490    16.3170 hc         1 YRT       0.037367
     55 H013       -21.5720   -12.4930    16.2640 hc         1 YRT       0.037367
     56 H021       -22.8130   -11.0780    14.6720 h1         1 YRT       0.084700
     57 H041       -21.7900   -14.6120    14.6950 ha         1 YRT       0.090000
     58 H051       -20.7200   -15.7370    12.8120 ha         1 YRT       0.094000
     59 H061       -20.6300   -14.6930    10.5810 ha         1 YRT       0.109000
     60 H202       -17.6420   -13.4160     6.9120 h1         1 YRT       0.059950
     61 H201       -16.0000   -14.0300     6.6530 h1         1 YRT       0.059950
     62 H231       -20.2060   -10.4860     8.5100 ha         1 YRT       0.155000
     63 H331       -27.5330   -14.8500    13.7920 hc         1 YRT       0.064200
     64 H332       -27.9560   -13.4870    12.7390 hc         1 YRT       0.064200
     65 H281       -23.2530   -10.3830    12.4280 hn         1 YRT       0.391000
     66 H362       -31.2090   -15.5790    14.6990 hn         1 YRT       0.390000
     67 H1         -31.2460   -14.0620    14.1520 hn         1 YRT       0.390000
     68 O40        -24.9510   -10.0880    13.8740 o          1 YRT      -0.529000
@<TRIPOS>BOND
     1     1     2 ar  
     2     1    23 ar  
     3     1    40 1   
     4     2    24 ar  
     5     2    41 1   
     6     3    24 1   
     7     3    39 1   
     8     3    42 1   
     9     4    39 2   
    10     5     6 1   
    11     5    25 1   
    12     5    39 1   
    13     5    43 1   
    14     6    35 1   
    15     6    44 1   
    16     6    45 1   
    17     7    24 ar  
    18     7    26 ar  
    19     7    30 1   
    20     8     9 1   
    21     8    22 2   
    22     8    31 1   
    23     9    36 1   
    24     9    37 1   
    25    10    28 1   
    26    10    32 1   
    27    10    46 1   
    28    10    47 1   
    29    11    12 1   
    30    11    13 1   
    31    11    29 1   
    32    11    48 1   
    33    12    33 1   
    34    12    49 1   
    35    12    50 1   
    36    13    28 1   
    37    13    51 1   
    38    13    52 1   
    39    14    32 1   
    40    14    38 1   
    41    14    68 2   
    42    15    16 1   
    43    15    53 1   
    44    15    54 1   
    45    15    55 1   
    46    16    17 1   
    47    16    32 1   
    48    16    56 1   
    49    17    18 ar  
    50    17    27 ar  
    51    18    19 ar  
    52    18    57 1   
    53    19    20 ar  
    54    19    58 1   
    55    20    21 ar  
    56    20    59 1   
    57    21    22 1   
    58    21    27 ar  
    59    22    23 1   
    60    23    26 ar  
    61    25    35 1   
    62    25    60 1   
    63    25    61 1   
    64    26    62 1   
    65    27    31 1   
    66    28    29 1   
    67    28    38 1   
    68    29    63 1   
    69    29    64 1   
    70    31    65 1   
    71    33    66 1   
    72    33    67 1   
    73    34    39 2   
@<TRIPOS>SUBSTRUCTURE
     1 YRT         1 TEMP              0 ****  ****    0 ROOT
