@<TRIPOS>MOLECULE
YRV
   29    29     1     0     0
SMALL
No Charge or Current Charge


@<TRIPOS>ATOM
      1 CA         -22.8110    40.1620     0.1350 c3         1 YRV       0.015500
      2 C          -21.7450    39.8520     1.2570 c          1 YRV       0.697000
      3 C93        -23.4860    33.6120     1.0940 c3         1 YRV      -0.042800
      4 CB         -23.3900    38.8180    -0.3850 c3         1 YRV       0.112600
      5 CA4        -25.2450    37.3030    -1.9260 c3         1 YRV       0.089900
      6 CA5        -25.4270    36.3760    -0.7310 ca         1 YRV      -0.062300
      7 CA6        -26.6040    36.4370     0.0380 ca         1 YRV      -0.097000
      8 CA7        -26.7700    35.5870     1.1450 ca         1 YRV      -0.114000
      9 CA8        -25.7610    34.6720     1.4870 ca         1 YRV      -0.120000
     10 CA9        -24.5820    34.5990     0.7230 ca         1 YRV      -0.073300
     11 CAA        -24.4190    35.4540    -0.3840 ca         1 YRV      -0.099000
     12 N          -22.3390    41.0660    -0.9900 n8         1 YRV      -0.992200
     13 O          -20.6930    39.3200     0.9280 o          1 YRV      -0.728000
     14 SG         -24.9410    39.0490    -1.3870 ss         1 YRV      -0.454000
     15 HA         -23.6350    40.6860     0.6400 h1         1 YRV       0.052700
     16 H3         -22.7470    34.0800     1.7550 hc         1 YRV       0.037700
     17 H4         -23.8940    32.7370     1.6150 hc         1 YRV       0.037700
     18 H5         -22.9580    33.2480     0.2050 hc         1 YRV       0.037700
     19 HB2        -23.6300    38.1780     0.4740 h1         1 YRV       0.059700
     20 HB3        -22.6380    38.2980    -0.9930 h1         1 YRV       0.059700
     21 H8         -24.3990    36.9670    -2.5400 h1         1 YRV       0.058200
     22 H9         -26.1470    37.2760    -2.5510 h1         1 YRV       0.058200
     23 H10        -27.3870    37.1470    -0.2190 ha         1 YRV       0.115000
     24 H11        -27.6800    35.6400     1.7380 ha         1 YRV       0.100000
     25 H12        -25.8970    34.0190     2.3470 ha         1 YRV       0.099000
     26 H13        -23.5060    35.4040    -0.9730 ha         1 YRV       0.112000
     27 H          -22.0020    41.9500    -0.5920 hn         1 YRV       0.384000
     28 H2         -21.4930    40.6570    -1.4050 hn         1 YRV       0.384000
     29 OXT        -21.9700    40.2410     2.3950 o          1 YRV      -0.728000
@<TRIPOS>BOND
     1     1     2 1   
     2     1     4 1   
     3     1    12 1   
     4     1    15 1   
     5     2    13 1   
     6     2    29 1   
     7     3    10 1   
     8     3    16 1   
     9     3    17 1   
    10     3    18 1   
    11     4    14 1   
    12     4    19 1   
    13     4    20 1   
    14     5     6 1   
    15     5    14 1   
    16     5    21 1   
    17     5    22 1   
    18     6     7 ar  
    19     6    11 ar  
    20     7     8 ar  
    21     7    23 1   
    22     8     9 ar  
    23     8    24 1   
    24     9    10 ar  
    25     9    25 1   
    26    10    11 ar  
    27    11    26 1   
    28    12    27 1   
    29    12    28 1   
@<TRIPOS>SUBSTRUCTURE
     1 YRV         1 TEMP              0 ****  ****    0 ROOT
