@<TRIPOS>MOLECULE
YRV
   29    29     1     0     0
SMALL
abcg2


@<TRIPOS>ATOM
      1 CA         -22.7450    39.9880     0.1660 c3         1 YRV       0.015500
      2 C          -21.3530    39.8370     0.8460 c          1 YRV       0.697000
      3 C93        -23.7560    33.5720     1.3470 c3         1 YRV      -0.042800
      4 CB         -23.0540    38.7500    -0.6660 c3         1 YRV       0.112600
      5 CA4        -25.0270    37.2030    -1.8950 c3         1 YRV       0.089900
      6 CA5        -25.3490    36.3670    -0.6920 ca         1 YRV      -0.062300
      7 CA6        -26.5410    36.5580     0.0030 ca         1 YRV      -0.097000
      8 CA7        -26.8320    35.7810     1.1140 ca         1 YRV      -0.114000
      9 CA8        -25.9350    34.8130     1.5480 ca         1 YRV      -0.120000
     10 CA9        -24.7350    34.6060     0.8730 ca         1 YRV      -0.073300
     11 CAA        -24.4620    35.3920    -0.2460 ca         1 YRV      -0.099000
     12 N          -22.9310    41.1800    -0.6440 n8         1 YRV      -0.992200
     13 O          -20.5470    40.7760     0.7100 o          1 YRV      -0.728000
     14 SG         -24.6600    38.9430    -1.4980 ss         1 YRV      -0.454000
     15 HA         -23.4890    40.0290     0.9720 h1         1 YRV       0.052700
     16 H3         -23.2840    33.8760     2.2840 hc         1 YRV       0.037700
     17 H4         -24.2450    32.6150     1.5320 hc         1 YRV       0.037700
     18 H5         -22.9630    33.4090     0.6180 hc         1 YRV       0.037700
     19 HB2        -23.0870    37.8710    -0.0250 h1         1 YRV       0.059700
     20 HB3        -22.2810    38.5860    -1.4220 h1         1 YRV       0.059700
     21 H8         -24.1910    36.7780    -2.4530 h1         1 YRV       0.058200
     22 H9         -25.8800    37.2430    -2.5760 h1         1 YRV       0.058200
     23 H10        -27.2430    37.3140    -0.3290 ha         1 YRV       0.115000
     24 H11        -27.7640    35.9270     1.6450 ha         1 YRV       0.100000
     25 H12        -26.1740    34.2110     2.4170 ha         1 YRV       0.099000
     26 H13        -23.5350    35.2340    -0.7870 ha         1 YRV       0.112000
     27 H          -22.7430    41.9930    -0.0710 hn         1 YRV       0.384000
     28 H2         -22.2130    41.2020    -1.3600 hn         1 YRV       0.384000
     29 OXT        -21.1760    38.7810     1.4880 o          1 YRV      -0.728000
@<TRIPOS>BOND
     1     1     2 1   
     2     1     4 1   
     3     1    12 1   
     4     1    15 1   
     5     2    13 1   
     6     2    29 1   
     7     3    10 1   
     8     3    16 1   
     9     3    17 1   
    10     3    18 1   
    11     4    14 1   
    12     4    19 1   
    13     4    20 1   
    14     5     6 1   
    15     5    14 1   
    16     5    21 1   
    17     5    22 1   
    18     6     7 ar  
    19     6    11 ar  
    20     7     8 ar  
    21     7    23 1   
    22     8     9 ar  
    23     8    24 1   
    24     9    10 ar  
    25     9    25 1   
    26    10    11 ar  
    27    11    26 1   
    28    12    27 1   
    29    12    28 1   
@<TRIPOS>SUBSTRUCTURE
     1 YRV         1 TEMP              0 ****  ****    0 ROOT
