@<TRIPOS>MOLECULE
YRW
   17    17     1     0     0
SMALL
abcg2


@<TRIPOS>ATOM
      1 CAB        207.9910   178.0960   203.0330 c          1 YRW       0.630700
      2 CAD        207.0810   175.7770   202.7070 ca         1 YRW      -0.097000
      3 CAE        207.6610   176.9230   202.1690 ca         1 YRW      -0.207600
      4 CAF        207.9740   176.9270   200.7970 ca         1 YRW       0.313000
      5 CAH        206.8110   174.6890   201.9000 ca         1 YRW       0.268900
      6 CAJ        207.6380   175.7650   200.0740 ca         1 YRW       0.254900
      7 NAA        207.1590   178.3200   204.0590 nt         1 YRW      -0.597000
      8 NAG        208.5090   177.9960   200.1430 nv         1 YRW      -1.077000
      9 NAI        207.0820   174.6940   200.5970 nb         1 YRW      -0.617000
     10 OAC        208.9730   178.7960   202.8130 o          1 YRW      -0.629100
     11 H2         206.3690   173.7900   202.3110 h4         1 YRW       0.023100
     12 H3         207.8520   175.7370   199.0090 h4         1 YRW       0.018100
     13 H4         207.3270   179.0990   204.6760 hn         1 YRW       0.317000
     14 H5         206.2830   177.8370   204.1610 hn         1 YRW       0.317000
     15 H6         209.0450   178.6450   200.6940 hn         1 YRW       0.481000
     16 H7         208.8870   177.8200   199.2260 hn         1 YRW       0.481000
     17 H1         206.8580   175.7140   203.7650 ha         1 YRW       0.118000
@<TRIPOS>BOND
     1     1     3 1   
     2     1     7 1   
     3     1    10 2   
     4     2     3 ar  
     5     2     5 ar  
     6     2    17 1   
     7     3     4 ar  
     8     4     6 ar  
     9     4     8 1   
    10     5     9 ar  
    11     5    11 1   
    12     6     9 ar  
    13     6    12 1   
    14     7    13 1   
    15     7    14 1   
    16     8    15 1   
    17     8    16 1   
@<TRIPOS>SUBSTRUCTURE
     1 YRW         1 TEMP              0 ****  ****    0 ROOT
