@<TRIPOS>MOLECULE
YRW
   17    17     1     0     0
SMALL
No Charge or Current Charge


@<TRIPOS>ATOM
      1 CAB        207.8570   178.2150   202.9570 c          1 YRW       0.630700
      2 CAD        206.9360   175.8490   202.6590 ca         1 YRW      -0.097000
      3 CAE        207.5960   176.9840   202.1100 ca         1 YRW      -0.207600
      4 CAF        207.9960   176.8910   200.7510 ca         1 YRW       0.313000
      5 CAH        206.7090   174.7040   201.8730 ca         1 YRW       0.268900
      6 CAJ        207.7180   175.6840   200.0450 ca         1 YRW       0.254900
      7 NAA        207.3200   178.2540   204.1940 nt         1 YRW      -0.597000
      8 NAG        208.6300   177.9450   200.1220 nv         1 YRW      -1.077000
      9 NAI        207.0900   174.6090   200.5820 nb         1 YRW      -0.617000
     10 OAC        208.5380   179.1620   202.5970 o          1 YRW      -0.629100
     11 H2         206.2070   173.8340   202.2950 h4         1 YRW       0.023100
     12 H3         208.0110   175.5820   199.0000 h4         1 YRW       0.018100
     13 H4         207.4880   179.0620   204.7740 hn         1 YRW       0.317000
     14 H5         206.7460   177.4960   204.5260 hn         1 YRW       0.317000
     15 H6         208.9240   178.7290   200.7110 hn         1 YRW       0.481000
     16 H7         209.1330   177.7990   199.2470 hn         1 YRW       0.481000
     17 H1         206.6010   175.8260   203.6920 ha         1 YRW       0.118000
@<TRIPOS>BOND
     1     1     3 1   
     2     1     7 1   
     3     1    10 2   
     4     2     3 ar  
     5     2     5 ar  
     6     2    17 1   
     7     3     4 ar  
     8     4     6 ar  
     9     4     8 1   
    10     5     9 ar  
    11     5    11 1   
    12     6     9 ar  
    13     6    12 1   
    14     7    13 1   
    15     7    14 1   
    16     8    15 1   
    17     8    16 1   
@<TRIPOS>SUBSTRUCTURE
     1 YRW         1 TEMP              0 ****  ****    0 ROOT
