@<TRIPOS>MOLECULE
YRX
   69    73     1     0     0
SMALL
abcg2


@<TRIPOS>ATOM
      1 C10        -21.9780   -11.7790    10.2480 cc         1 YRX      -0.165400
      2 C17        -21.9820   -10.4760     3.8610 c3         1 YRX      -0.321100
      3 C20        -20.4460   -11.2910     6.8680 ca         1 YRX       0.165000
      4 C36        -29.1930   -13.2220    16.0120 cy         1 YRX       0.125800
      5 C38        -24.7710   -11.0710    14.8400 c          1 YRX       0.687100
      6 C01        -21.8770   -12.6030    16.2830 c3         1 YRX      -0.095100
      7 C02        -22.5240   -12.0800    15.0080 c3         1 YRX       0.187000
      8 C03        -22.0600   -12.7750    13.7440 ca         1 YRX      -0.131300
      9 C04        -22.1780   -12.1390    12.4990 ca         1 YRX      -0.057200
     10 C06        -22.5560   -10.6770    10.8420 cd         1 YRX      -0.044300
     11 C07        -23.1210    -9.3890    10.2820 c          1 YRX       0.720200
     12 C11        -21.6010   -11.9820     8.8470 ca         1 YRX       0.100200
     13 C12        -21.9660   -13.1510     8.1750 ca         1 YRX      -0.134000
     14 C13        -21.5800   -13.3680     6.8620 ca         1 YRX      -0.070000
     15 C14        -20.8070   -12.4380     6.1730 ca         1 YRX      -0.165300
     16 C15        -20.3910   -12.6620     4.7590 c3         1 YRX      -0.200100
     17 C22        -20.8200   -11.0460     8.1700 ca         1 YRX      -0.108000
     18 C23        -21.7380   -12.7290    11.2950 ca         1 YRX      -0.082800
     19 C24        -21.1670   -14.0080    11.3310 ca         1 YRX      -0.065000
     20 C25        -21.0690   -14.6530    12.5450 ca         1 YRX      -0.165000
     21 C26        -21.5090   -14.0430    13.7320 ca         1 YRX      -0.111000
     22 C28        -24.7270   -13.3450    15.2290 c5         1 YRX       0.069000
     23 C29        -26.1480   -12.7970    15.3820 c5         1 YRX       0.154300
     24 C30        -27.1780   -13.5480    14.5710 c3         1 YRX       0.164800
     25 C32        -29.5970   -13.6250    14.0060 cy         1 YRX       0.125800
     26 C33        -30.5170   -13.3690    15.2160 cy         1 YRX       0.150200
     27 C34        -31.4370   -14.4950    15.6340 c3         1 YRX      -0.074100
     28 N05        -22.6630   -10.9070    12.1840 na         1 YRX      -0.191700
     29 N27        -23.9730   -12.1200    15.1160 n          1 YRX      -0.444800
     30 N31        -28.4950   -13.0020    14.7410 nq         1 YRX      -0.697600
     31 O08        -23.5150    -8.5750    11.1390 o          1 YRX      -0.692000
     32 O09        -23.1540    -9.2800     9.0460 o          1 YRX      -0.692000
     33 O18        -21.1030   -12.3550     2.2320 o          1 YRX      -0.537500
     34 O19        -22.8890   -12.9520     3.8930 o          1 YRX      -0.537500
     35 O37        -26.0550   -11.4370    14.9320 os         1 YRX      -0.392100
     36 O39        -24.4450    -9.9400    14.5450 o          1 YRX      -0.528000
     37 S16        -21.6740   -12.2050     3.5710 s6         1 YRX       1.059000
     38 H173       -22.3800   -10.3290     4.8620 h1         1 YRX       0.108033
     39 H171       -21.0640    -9.9100     3.7220 h1         1 YRX       0.108033
     40 H172       -22.7230   -10.1670     3.1240 h1         1 YRX       0.108033
     41 H361       -28.8970   -14.1580    16.5070 h1         1 YRX       0.050200
     42 H362       -29.1280   -12.4040    16.7350 h1         1 YRX       0.050200
     43 H011       -22.1960   -11.9980    17.1310 hc         1 YRX       0.037700
     44 H013       -22.1370   -13.6390    16.4950 hc         1 YRX       0.037700
     45 H012       -20.7930   -12.5380    16.2090 hc         1 YRX       0.037700
     46 H021       -22.2590   -11.0230    14.9280 h1         1 YRX       0.086700
     47 H121       -22.5730   -13.8910     8.6790 ha         1 YRX       0.118000
     48 H131       -21.8770   -14.2800     6.3620 ha         1 YRX       0.111000
     49 H152       -20.2160   -13.7200     4.5530 h1         1 YRX       0.097200
     50 H151       -19.4930   -12.1120     4.4760 h1         1 YRX       0.097200
     51 H221       -20.4980   -10.1380     8.6600 ha         1 YRX       0.151000
     52 H241       -20.8080   -14.4820    10.4260 ha         1 YRX       0.108000
     53 H251       -20.6370   -15.6440    12.5930 ha         1 YRX       0.093000
     54 H261       -21.3970   -14.5870    14.6600 ha         1 YRX       0.090000
     55 H1         -24.4280   -13.9380    16.0920 h1         1 YRX       0.057700
     56 H281       -24.6160   -13.9660    14.3330 h1         1 YRX       0.057700
     57 H2         -26.4380   -12.7740    16.4380 h1         1 YRX       0.056700
     58 H301       -26.9020   -13.5010    13.5130 h1         1 YRX       0.046700
     59 H302       -27.1190   -14.6110    14.8670 h1         1 YRX       0.046700
     60 H322       -29.8640   -13.1430    13.0610 h1         1 YRX       0.050200
     61 H321       -29.4480   -14.6990    13.8270 h1         1 YRX       0.050200
     62 H342       -31.9150   -14.2710    16.5910 hc         1 YRX       0.038367
     63 H343       -32.2250   -14.6430    14.8940 hc         1 YRX       0.038367
     64 H341       -30.8910   -15.4310    15.7460 hc         1 YRX       0.038367
     65 H051       -23.1040   -10.2480    12.8110 hn         1 YRX       0.392000
     66 N35        -31.2830   -12.1500    15.0400 n8         1 YRX      -0.986200
     67 F21        -19.6900   -10.3730     6.2400 f          1 YRX      -0.199000
     68 H351       -31.6970   -11.8820    15.9250 hn         1 YRX       0.405000
     69 H352       -30.6640   -11.3880    14.7840 hn         1 YRX       0.405000
@<TRIPOS>BOND
     1     1    10 2   
     2     1    12 1   
     3     1    18 1   
     4     2    37 1   
     5     2    38 1   
     6     2    39 1   
     7     2    40 1   
     8     3    15 ar  
     9     3    17 ar  
    10     3    67 1   
    11     4    26 1   
    12     4    30 1   
    13     4    41 1   
    14     4    42 1   
    15     5    29 1   
    16     5    35 1   
    17     5    36 2   
    18     6     7 1   
    19     6    43 1   
    20     6    44 1   
    21     6    45 1   
    22     7     8 1   
    23     7    29 1   
    24     7    46 1   
    25     8     9 ar  
    26     8    21 ar  
    27     9    18 ar  
    28     9    28 1   
    29    10    11 1   
    30    10    28 1   
    31    11    31 1   
    32    11    32 1   
    33    12    13 ar  
    34    12    17 ar  
    35    13    14 ar  
    36    13    47 1   
    37    14    15 ar  
    38    14    48 1   
    39    15    16 1   
    40    16    37 1   
    41    16    49 1   
    42    16    50 1   
    43    17    51 1   
    44    18    19 ar  
    45    19    20 ar  
    46    19    52 1   
    47    20    21 ar  
    48    20    53 1   
    49    21    54 1   
    50    22    23 1   
    51    22    29 1   
    52    22    55 1   
    53    22    56 1   
    54    23    24 1   
    55    23    35 1   
    56    23    57 1   
    57    24    30 1   
    58    24    58 1   
    59    24    59 1   
    60    25    26 1   
    61    25    30 1   
    62    25    60 1   
    63    25    61 1   
    64    26    27 1   
    65    26    66 1   
    66    27    62 1   
    67    27    63 1   
    68    27    64 1   
    69    28    65 1   
    70    33    37 2   
    71    34    37 2   
    72    66    68 1   
    73    66    69 1   
@<TRIPOS>SUBSTRUCTURE
     1 YRX         1 TEMP              0 ****  ****    0 ROOT
