@<TRIPOS>MOLECULE
YRX
   69    73     1     0     0
SMALL
No Charge or Current Charge


@<TRIPOS>ATOM
      1 C10        -22.1920   -11.8390    10.6640 cc         1 YRX      -0.165400
      2 C17        -22.5720   -10.4980     4.2280 c3         1 YRX      -0.321100
      3 C20        -20.9820   -11.7720     7.0900 ca         1 YRX       0.165000
      4 C36        -28.9090   -13.4970    14.9980 cy         1 YRX       0.125800
      5 C38        -24.5660   -10.8530    15.3730 c          1 YRX       0.687100
      6 C01        -21.4260   -12.3190    16.6640 c3         1 YRX      -0.095100
      7 C02        -22.2840   -11.8670    15.4600 c3         1 YRX       0.187000
      8 C03        -22.0080   -12.6550    14.1690 ca         1 YRX      -0.131300
      9 C04        -22.1830   -12.0530    12.9050 ca         1 YRX      -0.057200
     10 C06        -22.6390   -10.6270    11.2050 cd         1 YRX      -0.044300
     11 C07        -23.1050    -9.3980    10.4710 c          1 YRX       0.720200
     12 C11        -22.0730   -12.1250     9.2370 ca         1 YRX       0.100200
     13 C12        -22.8790   -13.1160     8.6500 ca         1 YRX      -0.134000
     14 C13        -22.7480   -13.4280     7.2850 ca         1 YRX      -0.070000
     15 C14        -21.8000   -12.7540     6.4920 ca         1 YRX      -0.165300
     16 C15        -21.6690   -13.1030     5.0040 c3         1 YRX      -0.200100
     17 C22        -21.1130   -11.4640     8.4520 ca         1 YRX      -0.108000
     18 C23        -21.9330   -12.7360    11.7470 ca         1 YRX      -0.082800
     19 C24        -21.5020   -14.0670    11.7360 ca         1 YRX      -0.065000
     20 C25        -21.3360   -14.7080    12.9780 ca         1 YRX      -0.165000
     21 C26        -21.5880   -14.0110    14.1830 ca         1 YRX      -0.111000
     22 C28        -24.4490   -13.0060    16.3710 c5         1 YRX       0.069000
     23 C29        -25.8970   -12.6360    15.9330 c5         1 YRX       0.154300
     24 C30        -26.3430   -13.4080    14.6570 c3         1 YRX       0.164800
     25 C32        -28.3160   -13.8270    13.0290 cy         1 YRX       0.125800
     26 C33        -29.7080   -13.3760    13.6350 cy         1 YRX       0.150200
     27 C34        -30.8960   -14.3340    13.4360 c3         1 YRX      -0.074100
     28 N05        -22.6180   -10.7630    12.6190 na         1 YRX      -0.191700
     29 N27        -23.7240   -11.8770    15.7840 n          1 YRX      -0.444800
     30 N31        -27.7090   -13.1130    14.1930 nq         1 YRX      -0.697600
     31 O08        -23.4480    -8.4380    11.1480 o          1 YRX      -0.692000
     32 O09        -23.1460    -9.3810     9.2490 o          1 YRX      -0.692000
     33 O18        -22.4090   -12.5000     2.5170 o          1 YRX      -0.537500
     34 O19        -24.1950   -12.5780     4.3120 o          1 YRX      -0.537500
     35 O37        -25.8480   -11.2100    15.6490 os         1 YRX      -0.392100
     36 O39        -24.2200    -9.7970    14.8640 o          1 YRX      -0.528000
     37 S16        -22.8250   -12.2420     3.9020 s6         1 YRX       1.059000
     38 H173       -22.8290   -10.3150     5.2760 h1         1 YRX       0.108033
     39 H171       -21.5200   -10.2710     4.0310 h1         1 YRX       0.108033
     40 H172       -23.2310    -9.9380     3.5560 h1         1 YRX       0.108033
     41 H361       -28.8840   -14.5160    15.4050 h1         1 YRX       0.050200
     42 H362       -29.2110   -12.7900    15.7800 h1         1 YRX       0.050200
     43 H011       -21.5670   -11.6320    17.5060 hc         1 YRX       0.037700
     44 H013       -21.6960   -13.3250    17.0040 hc         1 YRX       0.037700
     45 H012       -20.3620   -12.3150    16.3990 hc         1 YRX       0.037700
     46 H021       -21.9830   -10.8270    15.2720 h1         1 YRX       0.086700
     47 H121       -23.6110   -13.6440     9.2560 ha         1 YRX       0.118000
     48 H131       -23.3850   -14.1930     6.8470 ha         1 YRX       0.111000
     49 H152       -21.8480   -14.1720     4.8450 h1         1 YRX       0.097200
     50 H151       -20.6670   -12.8640     4.6340 h1         1 YRX       0.097200
     51 H221       -20.4720   -10.7100     8.8990 ha         1 YRX       0.151000
     52 H241       -21.3080   -14.5890    10.8030 ha         1 YRX       0.108000
     53 H251       -21.0110   -15.7450    13.0110 ha         1 YRX       0.093000
     54 H261       -21.4550   -14.5420    15.1210 ha         1 YRX       0.090000
     55 H1         -24.3470   -13.0180    17.4640 h1         1 YRX       0.057700
     56 H281       -24.1180   -13.9730    15.9700 h1         1 YRX       0.057700
     57 H2         -26.6220   -12.8250    16.7340 h1         1 YRX       0.056700
     58 H301       -25.6390   -13.1780    13.8450 h1         1 YRX       0.046700
     59 H302       -26.2680   -14.4850    14.8600 h1         1 YRX       0.046700
     60 H322       -28.0870   -13.4180    12.0380 h1         1 YRX       0.050200
     61 H321       -28.1680   -14.9150    13.0270 h1         1 YRX       0.050200
     62 H342       -31.7450   -14.0560    14.0730 hc         1 YRX       0.038367
     63 H343       -31.2380   -14.3340    12.3940 hc         1 YRX       0.038367
     64 H341       -30.6180   -15.3630    13.6910 hc         1 YRX       0.038367
     65 H051       -22.9660   -10.0750    13.2830 hn         1 YRX       0.392000
     66 N35        -30.1800   -12.0240    13.2630 n8         1 YRX      -0.986200
     67 F21        -20.0550   -11.1170     6.3550 f          1 YRX      -0.199000
     68 H351       -30.5700   -11.5640    14.0910 hn         1 YRX       0.405000
     69 H352       -29.3440   -11.4590    13.0750 hn         1 YRX       0.405000
@<TRIPOS>BOND
     1     1    10 2   
     2     1    12 1   
     3     1    18 1   
     4     2    37 1   
     5     2    38 1   
     6     2    39 1   
     7     2    40 1   
     8     3    15 ar  
     9     3    17 ar  
    10     3    67 1   
    11     4    26 1   
    12     4    30 1   
    13     4    41 1   
    14     4    42 1   
    15     5    29 1   
    16     5    35 1   
    17     5    36 2   
    18     6     7 1   
    19     6    43 1   
    20     6    44 1   
    21     6    45 1   
    22     7     8 1   
    23     7    29 1   
    24     7    46 1   
    25     8     9 ar  
    26     8    21 ar  
    27     9    18 ar  
    28     9    28 1   
    29    10    11 1   
    30    10    28 1   
    31    11    31 1   
    32    11    32 1   
    33    12    13 ar  
    34    12    17 ar  
    35    13    14 ar  
    36    13    47 1   
    37    14    15 ar  
    38    14    48 1   
    39    15    16 1   
    40    16    37 1   
    41    16    49 1   
    42    16    50 1   
    43    17    51 1   
    44    18    19 ar  
    45    19    20 ar  
    46    19    52 1   
    47    20    21 ar  
    48    20    53 1   
    49    21    54 1   
    50    22    23 1   
    51    22    29 1   
    52    22    55 1   
    53    22    56 1   
    54    23    24 1   
    55    23    35 1   
    56    23    57 1   
    57    24    30 1   
    58    24    58 1   
    59    24    59 1   
    60    25    26 1   
    61    25    30 1   
    62    25    60 1   
    63    25    61 1   
    64    26    27 1   
    65    26    66 1   
    66    27    62 1   
    67    27    63 1   
    68    27    64 1   
    69    28    65 1   
    70    33    37 2   
    71    34    37 2   
    72    66    68 1   
    73    66    69 1   
@<TRIPOS>SUBSTRUCTURE
     1 YRX         1 TEMP              0 ****  ****    0 ROOT
