@<TRIPOS>MOLECULE
YRZ
   37    40     1     0     0
SMALL
abcg2


@<TRIPOS>ATOM
      1 N19          1.1250     0.8760    -0.1990 nu         1 YRZ      -0.924100
      2 C6           2.3490     0.1090    -0.2720 c6         1 YRZ       0.200500
      3 C11          3.4370     0.9200    -0.9660 c6         1 YRZ      -0.087400
      4 C10          4.7500     0.1430    -0.9890 c6         1 YRZ      -0.110400
      5 C9           5.1350    -0.3090     0.4180 c6         1 YRZ       0.147800
      6 N8           4.0890    -1.0530     1.1010 n7         1 YRZ      -0.843400
      7 C7           2.8260    -0.3380     1.1170 c6         1 YRZ       0.130800
      8 C17         -0.1100     0.3370    -0.1200 cc         1 YRZ       0.706900
      9 C1          -1.2310     1.1800     0.0460 cc         1 YRZ      -0.359300
     10 C5          -1.3890     2.6590     0.2780 c5         1 YRZ      -0.004100
     11 C4          -2.9190     2.8410     0.1510 c5         1 YRZ       0.194800
     12 N3          -3.4640     1.4960     0.3740 nu         1 YRZ      -0.917200
     13 N18         -0.2410    -0.9810    -0.2340 nd         1 YRZ      -0.788000
     14 C13         -1.4730    -1.4960    -0.1810 cd         1 YRZ       0.466500
     15 C14         -1.9620    -2.7950    -0.2770 cc         1 YRZ      -0.432600
     16 C15         -3.3490    -2.6690    -0.1330 cc         1 YRZ       0.407500
     17 N16         -3.7510    -1.4210     0.0400 nd         1 YRZ      -0.607100
     18 N12         -2.6040    -0.7190     0.0100 na         1 YRZ       0.066900
     19 C2          -2.4730     0.6160     0.1300 cd         1 YRZ       0.379000
     20 H1           1.2130     1.8620    -0.0110 hn         1 YRZ       0.489000
     21 H2           2.1430    -0.7840    -0.8680 h1         1 YRZ       0.085700
     22 H3           3.1210     1.1800    -1.9790 hc         1 YRZ       0.044700
     23 H4           3.5870     1.8640    -0.4290 hc         1 YRZ       0.044700
     24 H5           4.6500    -0.7340    -1.6380 hc         1 YRZ       0.047200
     25 H6           5.5440     0.7590    -1.4160 hc         1 YRZ       0.047200
     26 H7           6.0360    -0.9250     0.3870 h1         1 YRZ       0.052700
     27 H8           5.3790     0.5710     1.0240 h1         1 YRZ       0.052700
     28 H9           3.9590    -1.9450     0.6370 hn         1 YRZ       0.410000
     29 H11          2.9340     0.5480     1.7530 h1         1 YRZ       0.060200
     30 H12          2.0660    -0.9700     1.5820 h1         1 YRZ       0.060200
     31 H13         -1.0360     2.9460     1.2740 hc         1 YRZ       0.052700
     32 H14         -3.3210     3.5450     0.8770 h1         1 YRZ       0.052700
     33 H15         -4.4070     1.2870     0.0810 hn         1 YRZ       0.505000
     34 H16         -1.3900    -3.6950    -0.4320 ha         1 YRZ       0.223000
     35 H17         -4.0820    -3.4620    -0.1520 h4         1 YRZ       0.040800
     36 H10         -0.8600     3.2810    -0.4450 hc         1 YRZ       0.052700
     37 H18         -3.1820     3.1920    -0.8500 h1         1 YRZ       0.052700
@<TRIPOS>BOND
     1     1     2 1   
     2     1     8 1   
     3     1    20 1   
     4     2     3 1   
     5     2     7 1   
     6     2    21 1   
     7     3     4 1   
     8     3    22 1   
     9     3    23 1   
    10     4     5 1   
    11     4    24 1   
    12     4    25 1   
    13     5     6 1   
    14     5    26 1   
    15     5    27 1   
    16     6     7 1   
    17     6    28 1   
    18     7    29 1   
    19     7    30 1   
    20     8     9 1   
    21     8    13 2   
    22     9    10 1   
    23     9    19 2   
    24    10    11 1   
    25    10    31 1   
    26    10    36 1   
    27    11    12 1   
    28    11    32 1   
    29    11    37 1   
    30    12    19 1   
    31    12    33 1   
    32    13    14 1   
    33    14    15 2   
    34    14    18 1   
    35    15    16 1   
    36    15    34 1   
    37    16    17 2   
    38    16    35 1   
    39    17    18 1   
    40    18    19 1   
@<TRIPOS>SUBSTRUCTURE
     1 YRZ         1 TEMP              0 ****  ****    0 ROOT
