@<TRIPOS>MOLECULE
YRZ
   37    40     1     0     0
SMALL
No Charge or Current Charge


@<TRIPOS>ATOM
      1 N19          1.0350     0.7360    -0.0380 nu         1 YRZ      -0.924100
      2 C6           2.3190     0.0310    -0.2320 c6         1 YRZ       0.200500
      3 C11          3.3480     1.0110    -0.8510 c6         1 YRZ      -0.087400
      4 C10          4.7450     0.3450    -0.9570 c6         1 YRZ      -0.110400
      5 C9           5.2140    -0.1950     0.4160 c6         1 YRZ       0.147800
      6 N8           4.2240    -1.1420     0.9850 n7         1 YRZ      -0.843400
      7 C7           2.8660    -0.5340     1.1210 c6         1 YRZ       0.130800
      8 C17         -0.1930     0.1580    -0.0140 cc         1 YRZ       0.706900
      9 C1          -1.3150     1.0470     0.0800 cc         1 YRZ      -0.359300
     10 C5          -1.2670     2.5610     0.1100 c5         1 YRZ      -0.004100
     11 C4          -2.8060     2.9970     0.1000 c5         1 YRZ       0.194800
     12 N3          -3.4410     1.6430     0.1680 nu         1 YRZ      -0.917200
     13 N18         -0.2590    -1.1660    -0.0780 nd         1 YRZ      -0.788000
     14 C13         -1.5960    -1.5200    -0.0550 cd         1 YRZ       0.466500
     15 C14         -2.0350    -2.7910    -0.1280 cc         1 YRZ      -0.432600
     16 C15         -3.4540    -2.7040    -0.0890 cc         1 YRZ       0.407500
     17 N16         -3.9460    -1.4670     0.0030 nd         1 YRZ      -0.607100
     18 N12         -2.7470    -0.7650     0.0210 na         1 YRZ       0.066900
     19 C2          -2.5780     0.6080     0.1170 cd         1 YRZ       0.379000
     20 H1           1.0120     1.7500    -0.0250 hn         1 YRZ       0.489000
     21 H2           2.1960    -0.8130    -0.9310 h1         1 YRZ       0.085700
     22 H3           3.0120     1.3330    -1.8460 hc         1 YRZ       0.044700
     23 H4           3.4240     1.9170    -0.2340 hc         1 YRZ       0.044700
     24 H5           4.7120    -0.4750    -1.6870 hc         1 YRZ       0.047200
     25 H6           5.4760     1.0720    -1.3380 hc         1 YRZ       0.047200
     26 H7           6.1870    -0.6980     0.3030 h1         1 YRZ       0.052700
     27 H8           5.3580     0.6470     1.1110 h1         1 YRZ       0.052700
     28 H9           4.1560    -1.9530     0.3550 hn         1 YRZ       0.410000
     29 H11          2.9080     0.2820     1.8580 h1         1 YRZ       0.060200
     30 H12          2.1650    -1.2870     1.5110 h1         1 YRZ       0.060200
     31 H13         -0.7610     2.9280     1.0110 hc         1 YRZ       0.052700
     32 H14         -3.0570     3.6290     0.9640 h1         1 YRZ       0.052700
     33 H15         -4.4010     1.4490    -0.1320 hn         1 YRZ       0.505000
     34 H16         -1.4470    -3.6960    -0.2040 ha         1 YRZ       0.223000
     35 H17         -4.1510    -3.5310    -0.1280 h4         1 YRZ       0.040800
     36 H10         -0.7370     2.9730    -0.7570 hc         1 YRZ       0.052700
     37 H18         -3.0680     3.5390    -0.8200 h1         1 YRZ       0.052700
@<TRIPOS>BOND
     1     1     2 1   
     2     1     8 1   
     3     1    20 1   
     4     2     3 1   
     5     2     7 1   
     6     2    21 1   
     7     3     4 1   
     8     3    22 1   
     9     3    23 1   
    10     4     5 1   
    11     4    24 1   
    12     4    25 1   
    13     5     6 1   
    14     5    26 1   
    15     5    27 1   
    16     6     7 1   
    17     6    28 1   
    18     7    29 1   
    19     7    30 1   
    20     8     9 1   
    21     8    13 2   
    22     9    10 1   
    23     9    19 2   
    24    10    11 1   
    25    10    31 1   
    26    10    36 1   
    27    11    12 1   
    28    11    32 1   
    29    11    37 1   
    30    12    19 1   
    31    12    33 1   
    32    13    14 1   
    33    14    15 2   
    34    14    18 1   
    35    15    16 1   
    36    15    34 1   
    37    16    17 2   
    38    16    35 1   
    39    17    18 1   
    40    18    19 1   
@<TRIPOS>SUBSTRUCTURE
     1 YRZ         1 TEMP              0 ****  ****    0 ROOT
