@<TRIPOS>MOLECULE
YS2
   65    67     1     0     0
SMALL
No Charge or Current Charge


@<TRIPOS>ATOM
      1 O3          -9.0410    -2.3100     0.2390 oh         1 YS2      -0.663000
      2 C24         -7.8110    -1.9690     0.8870 c3         1 YS2       0.162600
      3 C23         -6.9800    -1.0450    -0.0260 c3         1 YS2      -0.082400
      4 C22         -5.6290    -0.6300     0.6130 c3         1 YS2      -0.076400
      5 C20         -4.6500     0.1630    -0.3130 c3         1 YS2      -0.046700
      6 C21         -5.2630     1.5280    -0.7200 c3         1 YS2      -0.087100
      7 C17         -3.2200     0.3140     0.3830 c5         1 YS2      -0.053700
      8 C13         -2.0730     1.0870    -0.3750 c5         1 YS2      -0.035000
      9 C18         -1.8790     0.6020    -1.8510 c3         1 YS2      -0.079100
     10 C12         -2.1330     2.6710    -0.3770 c6         1 YS2      -0.063400
     11 C11         -0.7880     3.3810    -0.8070 c6         1 YS2      -0.071400
     12 C9           0.4410     2.8840     0.0060 c6         1 YS2      -0.042200
     13 C16         -2.5330    -1.0770     0.6870 c5         1 YS2      -0.077400
     14 C15         -0.9870    -0.8400     0.6240 c5         1 YS2      -0.071400
     15 C14         -0.8870     0.7080     0.6070 c5         1 YS2      -0.035500
     16 C8           0.4780     1.3580     0.1900 c2         1 YS2      -0.080400
     17 C7           1.5830     0.5650     0.1100 ce         1 YS2      -0.189000
     18 C6           2.9560     1.0290    -0.1850 ce         1 YS2      -0.161000
     19 C5           4.0380     0.2520    -0.4470 c2         1 YS2      -0.105400
     20 C4           5.4120     0.8680    -0.7130 c6         1 YS2      -0.032700
     21 C10          4.0580    -1.2770    -0.5310 c6         1 YS2      -0.032700
     22 C1           5.1140    -1.8710     0.4320 c6         1 YS2       0.212000
     23 O1           5.1360    -3.2960     0.3050 oh         1 YS2      -0.653500
     24 C2           6.5030    -1.2630     0.1750 c2         1 YS2      -0.200400
     25 C28          7.6300    -1.9730    -0.0450 c2         1 YS2      -0.298000
     26 C3           6.5230     0.2650     0.1880 c6         1 YS2       0.212000
     27 O2           6.3860     0.7150     1.5360 oh         1 YS2      -0.653500
     28 H1          -9.5340    -2.8970     0.8560 ho         1 YS2       0.441000
     29 H2          -8.0120    -1.4550     1.8360 h1         1 YS2       0.014700
     30 H3          -7.2340    -2.8770     1.1070 h1         1 YS2       0.014700
     31 H4          -6.7900    -1.5580    -0.9770 hc         1 YS2       0.052700
     32 H5          -7.5810    -0.1570    -0.2500 hc         1 YS2       0.052700
     33 H6          -5.8270    -0.0410     1.5170 hc         1 YS2       0.036700
     34 H7          -5.1400    -1.5510     0.9490 hc         1 YS2       0.036700
     35 H8          -4.5950    -0.4240    -1.2560 hc         1 YS2       0.047700
     36 H9          -4.7200     1.9570    -1.5670 hc         1 YS2       0.033700
     37 H10         -6.3010     1.4320    -1.0540 hc         1 YS2       0.033700
     38 H11         -5.2380     2.2370     0.1160 hc         1 YS2       0.033700
     39 H12         -3.4200     0.8240     1.3340 hc         1 YS2       0.043700
     40 H13         -2.6380     1.0360    -2.5110 hc         1 YS2       0.034367
     41 H14         -0.8980     0.8890    -2.2470 hc         1 YS2       0.034367
     42 H15         -1.9600    -0.4850    -1.9560 hc         1 YS2       0.034367
     43 H16         -2.9260     3.0330    -1.0380 hc         1 YS2       0.040200
     44 H17         -2.4040     3.0190     0.6290 hc         1 YS2       0.040200
     45 H18         -0.6080     3.2030    -1.8760 hc         1 YS2       0.040200
     46 H19         -0.8890     4.4690    -0.6970 hc         1 YS2       0.040200
     47 H20          1.3460     3.2600    -0.4840 hc         1 YS2       0.046700
     48 H21          0.4190     3.3490     1.0010 hc         1 YS2       0.046700
     49 H22         -2.8330    -1.4530     1.6720 hc         1 YS2       0.040200
     50 H23         -2.8270    -1.8430    -0.0400 hc         1 YS2       0.040200
     51 H24         -0.4710    -1.2790     1.4860 hc         1 YS2       0.044700
     52 H25         -0.5600    -1.2990    -0.2750 hc         1 YS2       0.044700
     53 H26         -1.1080     1.0790     1.6170 hc         1 YS2       0.052700
     54 H27          1.4930    -0.4980     0.3030 ha         1 YS2       0.172000
     55 H28          3.1080     2.1070    -0.1660 ha         1 YS2       0.170000
     56 H29          5.6770     0.6940    -1.7640 hc         1 YS2       0.058450
     57 H30          5.3870     1.9590    -0.5870 hc         1 YS2       0.058450
     58 H31          3.0830    -1.7240    -0.3170 hc         1 YS2       0.058450
     59 H32          4.3010    -1.5720    -1.5610 hc         1 YS2       0.058450
     60 H33          4.8120    -1.6070     1.4570 h1         1 YS2       0.042200
     61 H34          5.8030    -3.6100     0.9520 ho         1 YS2       0.441500
     62 H35          8.5880    -1.4820    -0.2210 ha         1 YS2       0.167500
     63 H36          7.6510    -3.0630    -0.0700 ha         1 YS2       0.167500
     64 H37          7.4900     0.6120    -0.2090 h1         1 YS2       0.042200
     65 H38          7.0590     0.2200     2.0510 ho         1 YS2       0.441500
@<TRIPOS>BOND
     1     1     2 1   
     2     1    28 1   
     3     2     3 1   
     4     2    29 1   
     5     2    30 1   
     6     3     4 1   
     7     3    31 1   
     8     3    32 1   
     9     4     5 1   
    10     4    33 1   
    11     4    34 1   
    12     5     6 1   
    13     5     7 1   
    14     5    35 1   
    15     6    36 1   
    16     6    37 1   
    17     6    38 1   
    18     7     8 1   
    19     7    13 1   
    20     7    39 1   
    21     8     9 1   
    22     8    10 1   
    23     8    15 1   
    24     9    40 1   
    25     9    41 1   
    26     9    42 1   
    27    10    11 1   
    28    10    43 1   
    29    10    44 1   
    30    11    12 1   
    31    11    45 1   
    32    11    46 1   
    33    12    16 1   
    34    12    47 1   
    35    12    48 1   
    36    13    14 1   
    37    13    49 1   
    38    13    50 1   
    39    14    15 1   
    40    14    51 1   
    41    14    52 1   
    42    15    16 1   
    43    15    53 1   
    44    16    17 2   
    45    17    18 1   
    46    17    54 1   
    47    18    19 2   
    48    18    55 1   
    49    19    20 1   
    50    19    21 1   
    51    20    26 1   
    52    20    56 1   
    53    20    57 1   
    54    21    22 1   
    55    21    58 1   
    56    21    59 1   
    57    22    23 1   
    58    22    24 1   
    59    22    60 1   
    60    23    61 1   
    61    24    25 2   
    62    24    26 1   
    63    25    62 1   
    64    25    63 1   
    65    26    27 1   
    66    26    64 1   
    67    27    65 1   
@<TRIPOS>SUBSTRUCTURE
     1 YS2         1 TEMP              0 ****  ****    0 ROOT
