@<TRIPOS>MOLECULE
YS2
   65    67     1     0     0
SMALL
bcc


@<TRIPOS>ATOM
      1 O3          -8.8450    -2.2080    -0.1370 oh         1 YS2      -0.600800
      2 C24         -7.6770    -1.8940     0.5940 c3         1 YS2       0.139400
      3 C23         -6.7890    -1.0000    -0.2480 c3         1 YS2      -0.082400
      4 C22         -5.5200    -0.6070     0.5020 c3         1 YS2      -0.076400
      5 C20         -4.4860     0.1590    -0.3350 c3         1 YS2      -0.046700
      6 C21         -5.0780     1.4620    -0.8670 c3         1 YS2      -0.087100
      7 C17         -3.2040     0.3660     0.4870 c5         1 YS2      -0.053700
      8 C13         -2.0100     1.1030    -0.1690 c5         1 YS2      -0.035000
      9 C18         -1.7590     0.5740    -1.5830 c3         1 YS2      -0.079100
     10 C12         -2.0740     2.6320    -0.1610 c6         1 YS2      -0.063400
     11 C11         -0.7350     3.2530    -0.5590 c6         1 YS2      -0.071400
     12 C9           0.4320     2.7420     0.2930 c6         1 YS2      -0.042200
     13 C16         -2.5910    -0.9830     0.9540 c5         1 YS2      -0.077400
     14 C15         -1.0610    -0.8090     0.9790 c5         1 YS2      -0.071400
     15 C14         -0.8670     0.6870     0.7920 c5         1 YS2      -0.035500
     16 C8           0.4600     1.2400     0.3740 c2         1 YS2      -0.080400
     17 C7           1.5260     0.4640     0.1160 ce         1 YS2      -0.139000
     18 C6           2.8370     0.9150    -0.3150 ce         1 YS2      -0.111000
     19 C5           3.9040     0.1430    -0.5710 c2         1 YS2      -0.105400
     20 C4           5.2030     0.7390    -1.0310 c6         1 YS2      -0.032700
     21 C10          3.9460    -1.3510    -0.4310 c6         1 YS2      -0.032700
     22 C1           5.0850    -1.7760     0.5040 c6         1 YS2       0.188800
     23 O1           5.0940    -3.1790     0.5650 oh         1 YS2      -0.591300
     24 C2           6.3780    -1.1780     0.0090 c2         1 YS2      -0.200400
     25 C28          7.4410    -1.8950    -0.3410 c2         1 YS2      -0.198000
     26 C3           6.3580     0.3250    -0.1210 c6         1 YS2       0.188800
     27 O2           6.1580     0.9520     1.1300 oh         1 YS2      -0.591300
     28 H1          -9.3870    -2.7920     0.4000 ho         1 YS2       0.402000
     29 H2          -7.9210    -1.3790     1.5340 h1         1 YS2       0.014700
     30 H3          -7.1230    -2.8020     0.8690 h1         1 YS2       0.014700
     31 H4          -6.5200    -1.5210    -1.1720 hc         1 YS2       0.052700
     32 H5          -7.3570    -0.1130    -0.5390 hc         1 YS2       0.052700
     33 H6          -5.7850    -0.0070     1.3810 hc         1 YS2       0.036700
     34 H7          -5.0620    -1.5210     0.8890 hc         1 YS2       0.036700
     35 H8          -4.2280    -0.4740    -1.1950 hc         1 YS2       0.047700
     36 H9          -4.4260     1.9390    -1.5970 hc         1 YS2       0.033700
     37 H10         -6.0320     1.2920    -1.3670 hc         1 YS2       0.033700
     38 H11         -5.2520     2.1780    -0.0590 hc         1 YS2       0.033700
     39 H12         -3.4790     0.9460     1.3800 hc         1 YS2       0.043700
     40 H13         -2.4840     0.9850    -2.2880 hc         1 YS2       0.034367
     41 H14         -0.7670     0.8380    -1.9510 hc         1 YS2       0.034367
     42 H15         -1.8380    -0.5130    -1.6350 hc         1 YS2       0.034367
     43 H16         -2.8510     3.0080    -0.8280 hc         1 YS2       0.040200
     44 H17         -2.3430     2.9680     0.8470 hc         1 YS2       0.040200
     45 H18         -0.5310     3.0520    -1.6140 hc         1 YS2       0.040200
     46 H19         -0.7940     4.3400    -0.4650 hc         1 YS2       0.040200
     47 H20          1.3680     3.1550    -0.0830 hc         1 YS2       0.046700
     48 H21          0.3110     3.1300     1.3110 hc         1 YS2       0.046700
     49 H22         -2.9770    -1.2670     1.9330 hc         1 YS2       0.040200
     50 H23         -2.8720    -1.7870     0.2680 hc         1 YS2       0.040200
     51 H24         -0.6090    -1.1700     1.9050 hc         1 YS2       0.044700
     52 H25         -0.6000    -1.3720     0.1650 hc         1 YS2       0.044700
     53 H26         -1.1140     1.1660     1.7530 hc         1 YS2       0.052700
     54 H27          1.3970    -0.6050     0.2390 ha         1 YS2       0.122000
     55 H28          2.9680     1.9830    -0.4580 ha         1 YS2       0.120000
     56 H29          5.4380     0.3810    -2.0400 hc         1 YS2       0.058450
     57 H30          5.1440     1.8290    -1.0850 hc         1 YS2       0.058450
     58 H31          3.0070    -1.7590    -0.0590 hc         1 YS2       0.058450
     59 H32          4.1290    -1.8000    -1.4160 hc         1 YS2       0.058450
     60 H33          4.8720    -1.3510     1.4960 h1         1 YS2       0.042200
     61 H34          5.6990    -3.4490     1.2640 ho         1 YS2       0.402500
     62 H35          8.3390    -1.4140    -0.7060 ha         1 YS2       0.117500
     63 H36          7.4610    -2.9760    -0.2870 ha         1 YS2       0.117500
     64 H37          7.3010     0.6550    -0.5770 h1         1 YS2       0.042200
     65 H38          6.8820     0.6960     1.7100 ho         1 YS2       0.402500
@<TRIPOS>BOND
     1     1     2 1   
     2     1    28 1   
     3     2     3 1   
     4     2    29 1   
     5     2    30 1   
     6     3     4 1   
     7     3    31 1   
     8     3    32 1   
     9     4     5 1   
    10     4    33 1   
    11     4    34 1   
    12     5     6 1   
    13     5     7 1   
    14     5    35 1   
    15     6    36 1   
    16     6    37 1   
    17     6    38 1   
    18     7     8 1   
    19     7    13 1   
    20     7    39 1   
    21     8     9 1   
    22     8    10 1   
    23     8    15 1   
    24     9    40 1   
    25     9    41 1   
    26     9    42 1   
    27    10    11 1   
    28    10    43 1   
    29    10    44 1   
    30    11    12 1   
    31    11    45 1   
    32    11    46 1   
    33    12    16 1   
    34    12    47 1   
    35    12    48 1   
    36    13    14 1   
    37    13    49 1   
    38    13    50 1   
    39    14    15 1   
    40    14    51 1   
    41    14    52 1   
    42    15    16 1   
    43    15    53 1   
    44    16    17 2   
    45    17    18 1   
    46    17    54 1   
    47    18    19 2   
    48    18    55 1   
    49    19    20 1   
    50    19    21 1   
    51    20    26 1   
    52    20    56 1   
    53    20    57 1   
    54    21    22 1   
    55    21    58 1   
    56    21    59 1   
    57    22    23 1   
    58    22    24 1   
    59    22    60 1   
    60    23    61 1   
    61    24    25 2   
    62    24    26 1   
    63    25    62 1   
    64    25    63 1   
    65    26    27 1   
    66    26    64 1   
    67    27    65 1   
@<TRIPOS>SUBSTRUCTURE
     1 YS2         1 TEMP              0 ****  ****    0 ROOT
