@<TRIPOS>MOLECULE
YS3
   71    73     1     0     0
SMALL
abcg2


@<TRIPOS>ATOM
      1 OAH          7.6670    -0.7390    -1.2950 oh         1 YS3      -0.660000
      2 CBA          7.2550    -1.4590    -0.1390 c3         1 YS3       0.182000
      3 CAC          6.6930    -2.8230    -0.5410 c3         1 YS3      -0.121600
      4 CAD          8.4470    -1.6590     0.7990 c3         1 YS3      -0.121600
      5 CAP          6.2070    -0.5880     0.5630 c3         1 YS3      -0.059400
      6 CAM          4.9680    -0.2550    -0.2620 c3         1 YS3      -0.072400
      7 CAW          3.8730     0.4930     0.5150 c3         1 YS3      -0.048700
      8 CAB          4.3920     1.8330     1.0300 c3         1 YS3      -0.086100
      9 CAZ          2.6190     0.6270    -0.3640 c5         1 YS3      -0.053700
     10 CAN          2.0780    -0.7570    -0.8120 c5         1 YS3      -0.077400
     11 CAQ          0.5470    -0.6380    -0.9270 c5         1 YS3      -0.071400
     12 CBB          0.2880     0.8520    -0.7800 c5         1 YS3      -0.035500
     13 CBC          1.3710     1.3330     0.2210 c5         1 YS3      -0.036000
     14 CAE          1.0800     0.8260     1.6350 c3         1 YS3      -0.078100
     15 CAO          1.3780     2.8640     0.1790 c6         1 YS3      -0.063400
     16 CAK         -0.0000     3.4420     0.5000 c6         1 YS3      -0.071400
     17 CAL         -1.1090     2.8650    -0.3870 c6         1 YS3      -0.042200
     18 CAV         -1.0750     1.3610    -0.4280 c2         1 YS3      -0.078400
     19 CAJ         -2.1150     0.5490    -0.1780 ce         1 YS3      -0.191000
     20 CAI         -3.4560     0.9510     0.2080 ce         1 YS3      -0.161000
     21 CAU         -4.4850     0.1340     0.4810 c2         1 YS3      -0.106400
     22 CAS         -5.8210     0.6750     0.9020 c6         1 YS3      -0.032200
     23 CAR         -4.4400    -1.3650     0.4150 c6         1 YS3      -0.032200
     24 CAX         -5.5450    -1.9030    -0.5020 c6         1 YS3       0.212000
     25 OAF         -5.4690    -3.3050    -0.4940 oh         1 YS3      -0.653500
     26 CAT         -6.8750    -1.3610    -0.0410 c2         1 YS3      -0.199400
     27 CAA         -7.8940    -2.1240     0.3390 c2         1 YS3      -0.298000
     28 CAY         -6.9470     0.1450     0.0160 c6         1 YS3       0.212000
     29 OAG         -6.7860     0.7190    -1.2660 oh         1 YS3      -0.653500
     30 H1           8.3220    -1.2700    -1.7610 ho         1 YS3       0.437000
     31 H2           7.4790    -3.4530    -0.9640 hc         1 YS3       0.039867
     32 H3           6.2820    -3.3500     0.3220 hc         1 YS3       0.039867
     33 H4           5.9040    -2.7350    -1.2880 hc         1 YS3       0.039867
     34 H5           8.8700    -0.7010     1.1050 hc         1 YS3       0.039867
     35 H6           8.1530    -2.1990     1.7000 hc         1 YS3       0.039867
     36 H7           9.2340    -2.2400     0.3120 hc         1 YS3       0.039867
     37 H8           5.9040    -1.1030     1.4800 hc         1 YS3       0.043700
     38 H9           6.7070     0.3300     0.8850 hc         1 YS3       0.043700
     39 H10          5.2500     0.3360    -1.1390 hc         1 YS3       0.045700
     40 H11          4.5470    -1.1860    -0.6470 hc         1 YS3       0.045700
     41 H12          3.6050    -0.1260     1.3820 hc         1 YS3       0.042700
     42 H13          4.5760     2.5290     0.2080 hc         1 YS3       0.032367
     43 H14          3.6910     2.3080     1.7140 hc         1 YS3       0.032367
     44 H15          5.3270     1.7180     1.5790 hc         1 YS3       0.032367
     45 H16          2.9070     1.1920    -1.2620 hc         1 YS3       0.046700
     46 H17          2.5290    -1.0650    -1.7560 hc         1 YS3       0.041200
     47 H18          2.3440    -1.5240    -0.0780 hc         1 YS3       0.041200
     48 H19          0.1630    -1.0300    -1.8700 hc         1 YS3       0.044200
     49 H20          0.0590    -1.2050    -0.1310 hc         1 YS3       0.044200
     50 H21          0.5580     1.3230    -1.7390 hc         1 YS3       0.053700
     51 H22          1.7710     1.2670     2.3560 hc         1 YS3       0.033700
     52 H23          0.0700     1.0730     1.9630 hc         1 YS3       0.033700
     53 H24          1.1830    -0.2580     1.7090 hc         1 YS3       0.033700
     54 H25          2.1090     3.2850     0.8700 hc         1 YS3       0.041200
     55 H26          1.6810     3.1830    -0.8260 hc         1 YS3       0.041200
     56 H27         -0.2440     3.2580     1.5500 hc         1 YS3       0.039700
     57 H28          0.0210     4.5280     0.3810 hc         1 YS3       0.039700
     58 H29         -2.0760     3.2490    -0.0610 hc         1 YS3       0.046700
     59 H30         -0.9590     3.2320    -1.4090 hc         1 YS3       0.046700
     60 H32         -1.9400    -0.5170    -0.2670 ha         1 YS3       0.172000
     61 H33         -3.6440     2.0160     0.3030 ha         1 YS3       0.170000
     62 H35         -6.0380     0.3570     1.9280 hc         1 YS3       0.057950
     63 H36         -5.8280     1.7670     0.8980 hc         1 YS3       0.057950
     64 H37         -3.4770    -1.7370     0.0670 hc         1 YS3       0.057950
     65 H38         -4.6030    -1.7740     1.4210 hc         1 YS3       0.057950
     66 H39         -5.3510    -1.5140    -1.5110 h1         1 YS3       0.042200
     67 H40         -6.0350    -3.6450    -1.1950 ho         1 YS3       0.441500
     68 H41         -7.8490    -3.2050     0.3360 ha         1 YS3       0.167500
     69 H42         -8.8230    -1.6820     0.6790 ha         1 YS3       0.167500
     70 H43         -7.9080     0.4380     0.4580 h1         1 YS3       0.042200
     71 H44         -7.4920     0.3870    -1.8300 ho         1 YS3       0.441500
@<TRIPOS>BOND
     1     1     2 1   
     2     1    30 1   
     3     2     3 1   
     4     2     4 1   
     5     2     5 1   
     6     3    31 1   
     7     3    32 1   
     8     3    33 1   
     9     4    34 1   
    10     4    35 1   
    11     4    36 1   
    12     5     6 1   
    13     5    37 1   
    14     5    38 1   
    15     6     7 1   
    16     6    39 1   
    17     6    40 1   
    18     7     8 1   
    19     7     9 1   
    20     7    41 1   
    21     8    42 1   
    22     8    43 1   
    23     8    44 1   
    24     9    10 1   
    25     9    13 1   
    26     9    45 1   
    27    10    11 1   
    28    10    46 1   
    29    10    47 1   
    30    11    12 1   
    31    11    48 1   
    32    11    49 1   
    33    12    13 1   
    34    12    18 1   
    35    12    50 1   
    36    13    14 1   
    37    13    15 1   
    38    14    51 1   
    39    14    52 1   
    40    14    53 1   
    41    15    16 1   
    42    15    54 1   
    43    15    55 1   
    44    16    17 1   
    45    16    56 1   
    46    16    57 1   
    47    17    18 1   
    48    17    58 1   
    49    17    59 1   
    50    18    19 2   
    51    19    20 1   
    52    19    60 1   
    53    20    21 2   
    54    20    61 1   
    55    21    22 1   
    56    21    23 1   
    57    22    28 1   
    58    22    62 1   
    59    22    63 1   
    60    23    24 1   
    61    23    64 1   
    62    23    65 1   
    63    24    25 1   
    64    24    26 1   
    65    24    66 1   
    66    25    67 1   
    67    26    27 2   
    68    26    28 1   
    69    27    68 1   
    70    27    69 1   
    71    28    29 1   
    72    28    70 1   
    73    29    71 1   
@<TRIPOS>SUBSTRUCTURE
     1 YS3         1 TEMP              0 ****  ****    0 ROOT
