@<TRIPOS>MOLECULE
YS3
   71    73     1     0     0
SMALL
No Charge or Current Charge


@<TRIPOS>ATOM
      1 OAH          7.8420    -0.7380    -1.4410 oh         1 YS3      -0.660000
      2 CBA          7.4130    -1.4950    -0.3090 c3         1 YS3       0.182000
      3 CAC          6.8410    -2.8380    -0.8230 c3         1 YS3      -0.121600
      4 CAD          8.6580    -1.7550     0.5700 c3         1 YS3      -0.121600
      5 CAP          6.3630    -0.6600     0.4890 c3         1 YS3      -0.059400
      6 CAM          5.0750    -0.2520    -0.2880 c3         1 YS3      -0.072400
      7 CAW          3.9950     0.5150     0.5450 c3         1 YS3      -0.048700
      8 CAB          4.5160     1.9150     0.9590 c3         1 YS3      -0.086100
      9 CAZ          2.6110     0.5780    -0.2520 c5         1 YS3      -0.053700
     10 CAN          2.0100    -0.8550    -0.5320 c5         1 YS3      -0.077400
     11 CAQ          0.4580    -0.6960    -0.5390 c5         1 YS3      -0.071400
     12 CBB          0.2890     0.8440    -0.6170 c5         1 YS3      -0.035500
     13 CBC          1.3640     1.3370     0.4140 c5         1 YS3      -0.036000
     14 CAE          1.0570     0.9350     1.9220 c3         1 YS3      -0.078100
     15 CAO          1.4140     2.8990     0.3240 c6         1 YS3      -0.063400
     16 CAK          0.0450     3.5560     0.6600 c6         1 YS3      -0.071400
     17 CAL         -1.1260     2.9790    -0.1770 c6         1 YS3      -0.042200
     18 CAV         -1.0900     1.4490    -0.2680 c2         1 YS3      -0.078400
     19 CAJ         -2.1660     0.6170    -0.1660 ce         1 YS3      -0.191000
     20 CAI         -3.5630     1.0390     0.0700 ce         1 YS3      -0.161000
     21 CAU         -4.6150     0.2350     0.3690 c2         1 YS3      -0.106400
     22 CAS         -6.0200     0.8040     0.5640 c6         1 YS3      -0.032200
     23 CAR         -4.5690    -1.2830     0.5660 c6         1 YS3      -0.032200
     24 CAX         -5.5750    -1.9940    -0.3700 c6         1 YS3       0.212000
     25 OAF         -5.5360    -3.4060    -0.1400 oh         1 YS3      -0.653500
     26 CAT         -6.9950    -1.4340    -0.1850 c2         1 YS3      -0.199400
     27 CAA         -8.0940    -2.1780     0.0640 c2         1 YS3      -0.298000
     28 CAY         -7.0830     0.0870    -0.3100 c6         1 YS3       0.212000
     29 OAG         -6.9380     0.4440    -1.6850 oh         1 YS3      -0.653500
     30 H1           8.4990    -1.2880    -1.9170 ho         1 YS3       0.437000
     31 H2           7.6260    -3.4480    -1.2860 hc         1 YS3       0.039867
     32 H3           6.4100    -3.4170     0.0030 hc         1 YS3       0.039867
     33 H4           6.0590    -2.6830    -1.5760 hc         1 YS3       0.039867
     34 H5           9.1060    -0.8130     0.9080 hc         1 YS3       0.039867
     35 H6           8.3890    -2.3390     1.4590 hc         1 YS3       0.039867
     36 H7           9.4230    -2.3150     0.0180 hc         1 YS3       0.039867
     37 H8           6.0670    -1.2300     1.3780 hc         1 YS3       0.043700
     38 H9           6.8670     0.2400     0.8570 hc         1 YS3       0.043700
     39 H10          5.3500     0.3550    -1.1590 hc         1 YS3       0.045700
     40 H11          4.6270    -1.1680    -0.6840 hc         1 YS3       0.045700
     41 H12          3.8980    -0.0510     1.4970 hc         1 YS3       0.042700
     42 H13          4.4930     2.6110     0.1120 hc         1 YS3       0.032367
     43 H14          3.9110     2.3230     1.7740 hc         1 YS3       0.032367
     44 H15          5.5410     1.8820     1.3400 hc         1 YS3       0.032367
     45 H16          2.8510     1.0570    -1.2100 hc         1 YS3       0.046700
     46 H17          2.3690    -1.2480    -1.4900 hc         1 YS3       0.041200
     47 H18          2.3100    -1.5800     0.2340 hc         1 YS3       0.041200
     48 H19         -0.0020    -1.2070    -1.3930 hc         1 YS3       0.044200
     49 H20          0.0200    -1.1260     0.3690 hc         1 YS3       0.044200
     50 H21          0.5460     1.1760    -1.6310 hc         1 YS3       0.053700
     51 H22          1.7310     1.4550     2.6120 hc         1 YS3       0.033700
     52 H23          0.0310     1.1760     2.2190 hc         1 YS3       0.033700
     53 H24          1.1990    -0.1370     2.1010 hc         1 YS3       0.033700
     54 H25          2.1630     3.3190     1.0020 hc         1 YS3       0.041200
     55 H26          1.7190     3.1980    -0.6880 hc         1 YS3       0.041200
     56 H27         -0.1750     3.4310     1.7290 hc         1 YS3       0.039700
     57 H28          0.1090     4.6400     0.4980 hc         1 YS3       0.039700
     58 H29         -2.0630     3.3470     0.2530 hc         1 YS3       0.046700
     59 H30         -1.0740     3.3890    -1.1950 hc         1 YS3       0.046700
     60 H32         -2.0320    -0.4510    -0.2970 ha         1 YS3       0.172000
     61 H33         -3.7620     2.1050    -0.0300 ha         1 YS3       0.170000
     62 H35         -6.3000     0.6950     1.6210 hc         1 YS3       0.057950
     63 H36         -6.0420     1.8830     0.3590 hc         1 YS3       0.057950
     64 H37         -3.5690    -1.7000     0.4060 hc         1 YS3       0.057950
     65 H38         -4.8220    -1.5130     1.6100 hc         1 YS3       0.057950
     66 H39         -5.2630    -1.7910    -1.4060 h1         1 YS3       0.042200
     67 H40         -6.1730    -3.7960    -0.7750 ho         1 YS3       0.441500
     68 H41         -8.0670    -3.2620     0.1680 ha         1 YS3       0.167500
     69 H42         -9.0770    -1.7200     0.1850 ha         1 YS3       0.167500
     70 H43         -8.0730     0.4160     0.0430 h1         1 YS3       0.042200
     71 H44         -7.5770    -0.1170    -2.1740 ho         1 YS3       0.441500
@<TRIPOS>BOND
     1     1     2 1   
     2     1    30 1   
     3     2     3 1   
     4     2     4 1   
     5     2     5 1   
     6     3    31 1   
     7     3    32 1   
     8     3    33 1   
     9     4    34 1   
    10     4    35 1   
    11     4    36 1   
    12     5     6 1   
    13     5    37 1   
    14     5    38 1   
    15     6     7 1   
    16     6    39 1   
    17     6    40 1   
    18     7     8 1   
    19     7     9 1   
    20     7    41 1   
    21     8    42 1   
    22     8    43 1   
    23     8    44 1   
    24     9    10 1   
    25     9    13 1   
    26     9    45 1   
    27    10    11 1   
    28    10    46 1   
    29    10    47 1   
    30    11    12 1   
    31    11    48 1   
    32    11    49 1   
    33    12    13 1   
    34    12    18 1   
    35    12    50 1   
    36    13    14 1   
    37    13    15 1   
    38    14    51 1   
    39    14    52 1   
    40    14    53 1   
    41    15    16 1   
    42    15    54 1   
    43    15    55 1   
    44    16    17 1   
    45    16    56 1   
    46    16    57 1   
    47    17    18 1   
    48    17    58 1   
    49    17    59 1   
    50    18    19 2   
    51    19    20 1   
    52    19    60 1   
    53    20    21 2   
    54    20    61 1   
    55    21    22 1   
    56    21    23 1   
    57    22    28 1   
    58    22    62 1   
    59    22    63 1   
    60    23    24 1   
    61    23    64 1   
    62    23    65 1   
    63    24    25 1   
    64    24    26 1   
    65    24    66 1   
    66    25    67 1   
    67    26    27 2   
    68    26    28 1   
    69    27    68 1   
    70    27    69 1   
    71    28    29 1   
    72    28    70 1   
    73    29    71 1   
@<TRIPOS>SUBSTRUCTURE
     1 YS3         1 TEMP              0 ****  ****    0 ROOT
