@<TRIPOS>MOLECULE
YS5
   89    91     1     0     0
SMALL
No Charge or Current Charge


@<TRIPOS>ATOM
      1 CAV          6.8090     1.4400    -1.4260 c6         1 YS5      -0.032200
      2 CBB          7.9070     0.5020    -0.8740 c6         1 YS5       0.211000
      3 OAG          9.0800     0.5950    -1.6880 oh         1 YS5      -0.653000
      4 CAY          8.2150     0.8270     0.5950 c2         1 YS5      -0.198400
      5 CAA          9.4400     1.1090     1.0870 c2         1 YS5      -0.298000
      6 CBC          6.9830     0.8110     1.4950 c6         1 YS5       0.211000
      7 OAH          6.5660    -0.5430     1.6790 oh         1 YS5      -0.653000
      8 CAW          5.8260     1.6750     0.9220 c6         1 YS5      -0.032200
      9 CAZ          5.5480     1.4040    -0.5630 c2         1 YS5      -0.105400
     10 CAJ          4.3290     1.1730    -1.1150 ce         1 YS5      -0.162000
     11 CAK          3.0300     1.1670    -0.4090 ce         1 YS5      -0.184000
     12 CBA          1.8480     0.7240    -0.9230 c2         1 YS5      -0.083400
     13 CAQ          1.6360     0.1700    -2.3380 c6         1 YS5      -0.041200
     14 CAP          0.6950    -1.0640    -2.3730 c6         1 YS5      -0.071400
     15 CAT         -0.5740    -0.8870    -1.4920 c6         1 YS5      -0.063400
     16 CBI         -0.2200    -0.4660    -0.0310 c5         1 YS5      -0.036000
     17 CAF          0.5930    -1.6380     0.6290 c3         1 YS5      -0.077100
     18 CBG          0.5650     0.8930    -0.0800 c5         1 YS5      -0.036500
     19 CAU          0.7080     1.2310     1.4360 c5         1 YS5      -0.072400
     20 CAS         -0.6870     0.8200     2.0180 c5         1 YS5      -0.077400
     21 CBF         -1.4290     0.0750     0.8460 c5         1 YS5      -0.046700
     22 CBD         -2.6270    -0.8510     1.3080 c3         1 YS5      -0.040700
     23 CAE         -2.1890    -2.0900     2.1390 c3         1 YS5      -0.087100
     24 CBE         -3.6870    -1.2470     0.1500 c3         1 YS5      -0.040700
     25 CAX         -4.3310    -0.0290    -0.6610 c3         1 YS5      -0.098400
     26 CBH         -5.1470     1.1080     0.0680 c3         1 YS5       0.195000
     27 CAN         -6.1850     0.5500     1.0920 c3         1 YS5      -0.087900
     28 CAD         -7.1050     1.5830     1.7890 c3         1 YS5      -0.089100
     29 OAI         -4.2400     1.9400     0.7930 oh         1 YS5      -0.662000
     30 CAM         -5.8520     2.0150    -0.9950 c3         1 YS5      -0.087900
     31 CAC         -4.9490     2.6280    -2.0950 c3         1 YS5      -0.089100
     32 CAR         -4.7510    -2.3650     0.5440 c3         1 YS5      -0.074400
     33 CAO         -5.7080    -2.8350    -0.5810 c3         1 YS5      -0.077400
     34 CAL         -6.5670    -4.0510    -0.1700 c3         1 YS5      -0.076400
     35 CAB         -7.5290    -4.5130    -1.2810 c3         1 YS5      -0.089100
     36 H1           7.1900     2.4700    -1.4610 hc         1 YS5       0.058450
     37 H2           6.5790     1.1610    -2.4630 hc         1 YS5       0.058450
     38 H3           7.5190    -0.5270    -0.9210 h1         1 YS5       0.041700
     39 H4           9.7280    -0.0260    -1.2940 ho         1 YS5       0.441000
     40 H6          10.3360     1.1390     0.4670 ha         1 YS5       0.167500
     41 H8           9.5910     1.3330     2.1440 ha         1 YS5       0.167500
     42 H9           7.2530     1.2360     2.4740 h1         1 YS5       0.041700
     43 H10          7.3680    -1.0330     1.9590 ho         1 YS5       0.441000
     44 H11          4.9410     1.5210     1.5480 hc         1 YS5       0.058450
     45 H12          6.0920     2.7340     1.0370 hc         1 YS5       0.058450
     46 H14          4.2870     0.9990    -2.1890 ha         1 YS5       0.168000
     47 H15          3.0560     1.5960     0.5870 ha         1 YS5       0.174000
     48 H17          1.2050     0.9650    -2.9610 hc         1 YS5       0.044700
     49 H18          2.5810    -0.1130    -2.8150 hc         1 YS5       0.044700
     50 H19          0.3950    -1.2660    -3.4100 hc         1 YS5       0.040200
     51 H20          1.2510    -1.9540    -2.0500 hc         1 YS5       0.040200
     52 H21         -1.2300    -0.1340    -1.9500 hc         1 YS5       0.037200
     53 H22         -1.1280    -1.8330    -1.4970 hc         1 YS5       0.037200
     54 H23          1.6160    -1.6980     0.2410 hc         1 YS5       0.035367
     55 H24          0.6820    -1.5410     1.7160 hc         1 YS5       0.035367
     56 H25          0.1280    -2.6100     0.4310 hc         1 YS5       0.035367
     57 H26         -0.0330     1.6740    -0.5680 hc         1 YS5       0.048700
     58 H27          1.5060     0.6590     1.9220 hc         1 YS5       0.045200
     59 H28          0.9250     2.2920     1.6020 hc         1 YS5       0.045200
     60 H29         -0.5610     0.1970     2.9080 hc         1 YS5       0.042700
     61 H30         -1.2600     1.6970     2.3410 hc         1 YS5       0.042700
     62 H31         -1.9250     0.8560     0.2660 hc         1 YS5       0.034700
     63 H32         -3.2010    -0.2450     2.0180 hc         1 YS5       0.060700
     64 H33         -1.8410    -2.8990     1.4890 hc         1 YS5       0.031700
     65 H34         -1.3950    -1.8500     2.8530 hc         1 YS5       0.031700
     66 H35         -3.0300    -2.4730     2.7290 hc         1 YS5       0.031700
     67 H36         -3.0870    -1.7640    -0.6020 hc         1 YS5       0.038700
     68 H37         -3.5140     0.4450    -1.2120 hc         1 YS5       0.039700
     69 H38         -4.9600    -0.4360    -1.4590 hc         1 YS5       0.039700
     70 H39         -6.8200    -0.1950     0.5990 hc         1 YS5       0.048200
     71 H40         -5.6420     0.0350     1.8910 hc         1 YS5       0.048200
     72 H41         -6.5210     2.3870     2.2530 hc         1 YS5       0.032700
     73 H42         -7.8150     2.0280     1.0810 hc         1 YS5       0.032700
     74 H43         -7.6900     1.0930     2.5770 hc         1 YS5       0.032700
     75 H44         -3.6330     2.3300     0.1330 ho         1 YS5       0.438000
     76 H45         -6.6480     1.4390    -1.4830 hc         1 YS5       0.048200
     77 H46         -6.3470     2.8520    -0.4890 hc         1 YS5       0.048200
     78 H47         -5.5330     3.3160    -2.7180 hc         1 YS5       0.032700
     79 H48         -4.1170     3.1950    -1.6610 hc         1 YS5       0.032700
     80 H49         -4.5400     1.8540    -2.7550 hc         1 YS5       0.032700
     81 H50         -4.2000    -3.2580     0.8620 hc         1 YS5       0.040700
     82 H51         -5.3350    -2.0610     1.4170 hc         1 YS5       0.040700
     83 H52         -6.3850    -2.0210    -0.8620 hc         1 YS5       0.035700
     84 H53         -5.1210    -3.0930    -1.4720 hc         1 YS5       0.035700
     85 H54         -5.9110    -4.8860     0.1020 hc         1 YS5       0.036700
     86 H55         -7.1510    -3.7970     0.7240 hc         1 YS5       0.036700
     87 H56         -6.9720    -4.8060    -2.1790 hc         1 YS5       0.031033
     88 H57         -8.1150    -5.3760    -0.9450 hc         1 YS5       0.031033
     89 H58         -8.2250    -3.7100    -1.5510 hc         1 YS5       0.031033
@<TRIPOS>BOND
     1     1     2 1   
     2     1     9 1   
     3     1    36 1   
     4     1    37 1   
     5     2     3 1   
     6     2     4 1   
     7     2    38 1   
     8     3    39 1   
     9     4     5 2   
    10     4     6 1   
    11     5    40 1   
    12     5    41 1   
    13     6     7 1   
    14     6     8 1   
    15     6    42 1   
    16     7    43 1   
    17     8     9 1   
    18     8    44 1   
    19     8    45 1   
    20     9    10 2   
    21    10    11 1   
    22    10    46 1   
    23    11    12 2   
    24    11    47 1   
    25    12    13 1   
    26    12    18 1   
    27    13    14 1   
    28    13    48 1   
    29    13    49 1   
    30    14    15 1   
    31    14    50 1   
    32    14    51 1   
    33    15    16 1   
    34    15    52 1   
    35    15    53 1   
    36    16    17 1   
    37    16    18 1   
    38    16    21 1   
    39    17    54 1   
    40    17    55 1   
    41    17    56 1   
    42    18    19 1   
    43    18    57 1   
    44    19    20 1   
    45    19    58 1   
    46    19    59 1   
    47    20    21 1   
    48    20    60 1   
    49    20    61 1   
    50    21    22 1   
    51    21    62 1   
    52    22    23 1   
    53    22    24 1   
    54    22    63 1   
    55    23    64 1   
    56    23    65 1   
    57    23    66 1   
    58    24    25 1   
    59    24    32 1   
    60    24    67 1   
    61    25    26 1   
    62    25    68 1   
    63    25    69 1   
    64    26    27 1   
    65    26    29 1   
    66    26    30 1   
    67    27    28 1   
    68    27    70 1   
    69    27    71 1   
    70    28    72 1   
    71    28    73 1   
    72    28    74 1   
    73    29    75 1   
    74    30    31 1   
    75    30    76 1   
    76    30    77 1   
    77    31    78 1   
    78    31    79 1   
    79    31    80 1   
    80    32    33 1   
    81    32    81 1   
    82    32    82 1   
    83    33    34 1   
    84    33    83 1   
    85    33    84 1   
    86    34    35 1   
    87    34    85 1   
    88    34    86 1   
    89    35    87 1   
    90    35    88 1   
    91    35    89 1   
@<TRIPOS>SUBSTRUCTURE
     1 YS5         1 TEMP              0 ****  ****    0 ROOT
