@<TRIPOS>MOLECULE
YS5
   89    91     1     0     0
SMALL
abcg2


@<TRIPOS>ATOM
      1 CAV          6.6690     0.9220    -1.4040 c6         1 YS5      -0.032200
      2 CBB          7.5150    -0.2320    -0.8530 c6         1 YS5       0.211000
      3 OAG          8.6310    -0.3950    -1.6900 oh         1 YS5      -0.653000
      4 CAY          7.8660     0.0660     0.5830 c2         1 YS5      -0.198400
      5 CAA          9.1100     0.1780     1.0360 c2         1 YS5      -0.298000
      6 CBC          6.6740     0.2970     1.4780 c6         1 YS5       0.211000
      7 OAH          5.8600    -0.8560     1.5700 oh         1 YS5      -0.653000
      8 CAW          5.8110     1.4210     0.9040 c6         1 YS5      -0.032200
      9 CAZ          5.4670     1.1630    -0.5340 c2         1 YS5      -0.105400
     10 CAJ          4.2260     1.1280    -1.0430 ce         1 YS5      -0.162000
     11 CAK          2.9850     1.2960    -0.3090 ce         1 YS5      -0.184000
     12 CBA          1.7460     1.2750    -0.8240 c2         1 YS5      -0.083400
     13 CAQ          1.3990     1.1160    -2.2800 c6         1 YS5      -0.041200
     14 CAP          0.4410    -0.0590    -2.5120 c6         1 YS5      -0.071400
     15 CAT         -0.7730    -0.0240    -1.5850 c6         1 YS5      -0.063400
     16 CBI         -0.3740     0.1030    -0.1120 c5         1 YS5      -0.036000
     17 CAF          0.4020    -1.1400     0.3310 c3         1 YS5      -0.077100
     18 CBG          0.5120     1.3730     0.0150 c5         1 YS5      -0.036500
     19 CAU          0.5960     1.6170     1.5130 c5         1 YS5      -0.072400
     20 CAS         -0.8190     1.2630     2.0070 c5         1 YS5      -0.077400
     21 CBF         -1.5210     0.4900     0.8590 c5         1 YS5      -0.046700
     22 CBD         -2.5600    -0.5340     1.3790 c3         1 YS5      -0.040700
     23 CAE         -1.9660    -1.6360     2.2640 c3         1 YS5      -0.087100
     24 CBE         -3.4510    -1.1240     0.2580 c3         1 YS5      -0.040700
     25 CAX         -4.2050    -0.0750    -0.5900 c3         1 YS5      -0.098400
     26 CBH         -5.1840     0.9620     0.0070 c3         1 YS5       0.195000
     27 CAN         -6.2660     0.3050     0.8730 c3         1 YS5      -0.087900
     28 CAD         -7.3280     1.2400     1.4420 c3         1 YS5      -0.089100
     29 OAI         -4.5290     1.8900     0.8640 oh         1 YS5      -0.662000
     30 CAM         -5.8490     1.7220    -1.1600 c3         1 YS5      -0.087900
     31 CAC         -4.9040     2.4420    -2.1180 c3         1 YS5      -0.089100
     32 CAR         -4.3250    -2.2980     0.7360 c3         1 YS5      -0.074400
     33 CAO         -5.1250    -2.9810    -0.3690 c3         1 YS5      -0.077400
     34 CAL         -5.7030    -4.3230     0.0620 c3         1 YS5      -0.076400
     35 CAB         -6.4790    -5.0150    -1.0500 c3         1 YS5      -0.089100
     36 H1           7.2980     1.8210    -1.4270 hc         1 YS5       0.058450
     37 H2           6.3670     0.7010    -2.4300 hc         1 YS5       0.058450
     38 H3           6.8880    -1.1350    -0.8670 h1         1 YS5       0.041700
     39 H4           9.0810    -1.2080    -1.4390 ho         1 YS5       0.441000
     40 H6           9.9780     0.0540     0.4010 ha         1 YS5       0.167500
     41 H8           9.3050     0.4100     2.0750 ha         1 YS5       0.167500
     42 H9           7.0290     0.6040     2.4710 h1         1 YS5       0.041700
     43 H10          6.3830    -1.5560     1.9730 ho         1 YS5       0.441000
     44 H11          4.9330     1.5560     1.5340 hc         1 YS5       0.058450
     45 H12          6.3940     2.3460     0.9710 hc         1 YS5       0.058450
     46 H14          4.1420     0.9410    -2.1090 ha         1 YS5       0.168000
     47 H15          3.0700     1.4250     0.7650 ha         1 YS5       0.174000
     48 H17          0.9020     2.0370    -2.6080 hc         1 YS5       0.044700
     49 H18          2.2800     1.0040    -2.9110 hc         1 YS5       0.044700
     50 H19          0.1040    -0.0450    -3.5510 hc         1 YS5       0.040200
     51 H20          0.9860    -0.9990    -2.3860 hc         1 YS5       0.040200
     52 H21         -1.4010     0.8330    -1.8550 hc         1 YS5       0.037200
     53 H22         -1.3830    -0.9150    -1.7530 hc         1 YS5       0.037200
     54 H23          1.3640    -1.2150    -0.1760 hc         1 YS5       0.035367
     55 H24          0.6050    -1.1450     1.4010 hc         1 YS5       0.035367
     56 H25         -0.1550    -2.0490     0.1010 hc         1 YS5       0.035367
     57 H26         -0.0900     2.1920    -0.4110 hc         1 YS5       0.048700
     58 H27          1.3400     0.9640     1.9750 hc         1 YS5       0.045200
     59 H28          0.8840     2.6420     1.7510 hc         1 YS5       0.045200
     60 H29         -0.7710     0.6790     2.9270 hc         1 YS5       0.042700
     61 H30         -1.3900     2.1610     2.2520 hc         1 YS5       0.042700
     62 H31         -2.0970     1.2390     0.3080 hc         1 YS5       0.034700
     63 H32         -3.2130     0.0560     2.0310 hc         1 YS5       0.060700
     64 H33         -1.5410    -2.4570     1.6860 hc         1 YS5       0.031700
     65 H34         -1.1750    -1.2530     2.9080 hc         1 YS5       0.031700
     66 H35         -2.7260    -2.0600     2.9190 hc         1 YS5       0.031700
     67 H36         -2.7650    -1.5980    -0.4570 hc         1 YS5       0.038700
     68 H37         -3.4540     0.4830    -1.1540 hc         1 YS5       0.039700
     69 H38         -4.7560    -0.6190    -1.3640 hc         1 YS5       0.039700
     70 H39         -6.7530    -0.4770     0.2830 hc         1 YS5       0.048200
     71 H40         -5.7810    -0.2010     1.7080 hc         1 YS5       0.048200
     72 H41         -6.8840     2.0470     2.0250 hc         1 YS5       0.032700
     73 H42         -7.9540     1.6900     0.6710 hc         1 YS5       0.032700
     74 H43         -7.9920     0.6850     2.1060 hc         1 YS5       0.032700
     75 H44         -3.8980     2.4000     0.3480 ho         1 YS5       0.438000
     76 H45         -6.4670     1.0210    -1.7280 hc         1 YS5       0.048200
     77 H46         -6.5340     2.4620    -0.7410 hc         1 YS5       0.048200
     78 H47         -5.4770     3.0350    -2.8310 hc         1 YS5       0.032700
     79 H48         -4.2370     3.1400    -1.6050 hc         1 YS5       0.032700
     80 H49         -4.2830     1.7580    -2.6950 hc         1 YS5       0.032700
     81 H50         -3.6640    -3.0560     1.1610 hc         1 YS5       0.040700
     82 H51         -4.9900    -2.0080     1.5530 hc         1 YS5       0.040700
     83 H52         -5.9430    -2.3440    -0.7180 hc         1 YS5       0.035700
     84 H53         -4.4730    -3.1340    -1.2370 hc         1 YS5       0.035700
     85 H54         -4.8910    -4.9730     0.4030 hc         1 YS5       0.036700
     86 H55         -6.3580    -4.1770     0.9270 hc         1 YS5       0.036700
     87 H56         -5.8520    -5.1720    -1.9300 hc         1 YS5       0.031033
     88 H57         -6.8560    -5.9880    -0.7340 hc         1 YS5       0.031033
     89 H58         -7.3370    -4.4170    -1.3640 hc         1 YS5       0.031033
@<TRIPOS>BOND
     1     1     2 1   
     2     1     9 1   
     3     1    36 1   
     4     1    37 1   
     5     2     3 1   
     6     2     4 1   
     7     2    38 1   
     8     3    39 1   
     9     4     5 2   
    10     4     6 1   
    11     5    40 1   
    12     5    41 1   
    13     6     7 1   
    14     6     8 1   
    15     6    42 1   
    16     7    43 1   
    17     8     9 1   
    18     8    44 1   
    19     8    45 1   
    20     9    10 2   
    21    10    11 1   
    22    10    46 1   
    23    11    12 2   
    24    11    47 1   
    25    12    13 1   
    26    12    18 1   
    27    13    14 1   
    28    13    48 1   
    29    13    49 1   
    30    14    15 1   
    31    14    50 1   
    32    14    51 1   
    33    15    16 1   
    34    15    52 1   
    35    15    53 1   
    36    16    17 1   
    37    16    18 1   
    38    16    21 1   
    39    17    54 1   
    40    17    55 1   
    41    17    56 1   
    42    18    19 1   
    43    18    57 1   
    44    19    20 1   
    45    19    58 1   
    46    19    59 1   
    47    20    21 1   
    48    20    60 1   
    49    20    61 1   
    50    21    22 1   
    51    21    62 1   
    52    22    23 1   
    53    22    24 1   
    54    22    63 1   
    55    23    64 1   
    56    23    65 1   
    57    23    66 1   
    58    24    25 1   
    59    24    32 1   
    60    24    67 1   
    61    25    26 1   
    62    25    68 1   
    63    25    69 1   
    64    26    27 1   
    65    26    29 1   
    66    26    30 1   
    67    27    28 1   
    68    27    70 1   
    69    27    71 1   
    70    28    72 1   
    71    28    73 1   
    72    28    74 1   
    73    29    75 1   
    74    30    31 1   
    75    30    76 1   
    76    30    77 1   
    77    31    78 1   
    78    31    79 1   
    79    31    80 1   
    80    32    33 1   
    81    32    81 1   
    82    32    82 1   
    83    33    34 1   
    84    33    83 1   
    85    33    84 1   
    86    34    35 1   
    87    34    85 1   
    88    34    86 1   
    89    35    87 1   
    90    35    88 1   
    91    35    89 1   
@<TRIPOS>SUBSTRUCTURE
     1 YS5         1 TEMP              0 ****  ****    0 ROOT
