@<TRIPOS>MOLECULE
YS6
   17    17     1     0     0
SMALL
No Charge or Current Charge


@<TRIPOS>ATOM
      1 S            2.3430    -1.4160    -0.0030 s          1 YS6      -0.626400
      2 C5           2.0780     0.2220    -0.1460 cs         1 YS6       0.483400
      3 N2           3.1140     1.0690    -0.2140 nt         1 YS6      -0.553000
      4 N1           0.8770     0.8760    -0.1300 ns         1 YS6      -0.362100
      5 C4          -0.4710     0.4430    -0.1220 ca         1 YS6       0.106600
      6 C           -1.4650     1.3270     0.3210 ca         1 YS6      -0.189500
      7 C3          -0.8810    -0.8230    -0.5740 ca         1 YS6      -0.189500
      8 C2          -2.2440    -1.1560    -0.5410 ca         1 YS6       0.352900
      9 N           -3.2000    -0.3080    -0.0980 nb         1 YS6      -0.670000
     10 C1          -2.8060     0.9150     0.3230 ca         1 YS6       0.352900
     11 H21N         4.0540     0.7000    -0.2050 hn         1 YS6       0.330000
     12 H22N         2.9760     2.0660    -0.2830 hn         1 YS6       0.330000
     13 H1           0.9610     1.8840    -0.1410 hn         1 YS6       0.306500
     14 H           -1.2120     2.3230     0.6720 ha         1 YS6       0.142000
     15 H3          -0.1770    -1.5460    -0.9670 ha         1 YS6       0.142000
     16 HA          -3.5920     1.5850     0.6710 h4         1 YS6       0.022600
     17 H2          -2.5840    -2.1320    -0.8880 h4         1 YS6       0.022600
@<TRIPOS>BOND
     1     1     2 2   
     2     2     3 1   
     3     2     4 1   
     4     3    11 1   
     5     3    12 1   
     6     4     5 1   
     7     4    13 1   
     8     5     6 ar  
     9     5     7 ar  
    10     6    10 ar  
    11     6    14 1   
    12     7     8 ar  
    13     7    15 1   
    14     8     9 ar  
    15     8    17 1   
    16     9    10 ar  
    17    10    16 1   
@<TRIPOS>SUBSTRUCTURE
     1 YS6         1 TEMP              0 ****  ****    0 ROOT
