@<TRIPOS>MOLECULE
YS6
   17    17     1     0     0
SMALL
bcc


@<TRIPOS>ATOM
      1 S            2.2260    -1.4000     0.0180 s          1 YS6      -0.626400
      2 C5           2.0340     0.2580    -0.1440 cs         1 YS6       0.617400
      3 N2           3.0940     1.0620    -0.2110 nt         1 YS6      -0.620000
      4 N1           0.8440     0.9110    -0.1940 ns         1 YS6      -0.429100
      5 C4          -0.4600     0.4310    -0.1560 ca         1 YS6       0.106600
      6 C           -1.4450     1.3040     0.3090 ca         1 YS6      -0.272800
      7 C3          -0.8720    -0.8250    -0.5970 ca         1 YS6      -0.272800
      8 C2          -2.2210    -1.1340    -0.5250 ca         1 YS6       0.418200
      9 N           -3.1630    -0.3150    -0.0730 nb         1 YS6      -0.670000
     10 C1          -2.7620     0.8870     0.3280 ca         1 YS6       0.418200
     11 H21N         4.0160     0.6650    -0.1520 hn         1 YS6       0.330000
     12 H22N         3.0230     2.0650    -0.2820 hn         1 YS6       0.330000
     13 H1           0.9010     1.9190    -0.1430 hn         1 YS6       0.306500
     14 H           -1.1890     2.2960     0.6600 ha         1 YS6       0.160000
     15 H3          -0.1750    -1.5470    -0.9890 ha         1 YS6       0.160000
     16 HA          -3.5290     1.5610     0.6920 h4         1 YS6       0.022600
     17 H2          -2.5510    -2.1090    -0.8670 h4         1 YS6       0.022600
@<TRIPOS>BOND
     1     1     2 2   
     2     2     3 1   
     3     2     4 1   
     4     3    11 1   
     5     3    12 1   
     6     4     5 1   
     7     4    13 1   
     8     5     6 ar  
     9     5     7 ar  
    10     6    10 ar  
    11     6    14 1   
    12     7     8 ar  
    13     7    15 1   
    14     8     9 ar  
    15     8    17 1   
    16     9    10 ar  
    17    10    16 1   
@<TRIPOS>SUBSTRUCTURE
     1 YS6         1 TEMP              0 ****  ****    0 ROOT
