@<TRIPOS>MOLECULE
YS8
   18    17     1     0     0
SMALL
No Charge or Current Charge


@<TRIPOS>ATOM
      1 C4          -5.6620     8.3760   -10.2380 c3         1 YS8      -0.107700
      2 C2          -6.3050     6.9860    -9.9200 c3         1 YS8      -0.065700
      3 C1          -5.4710     6.1840    -8.8890 c3         1 YS8      -0.077600
      4 C3          -7.7910     7.0630    -9.4860 c3         1 YS8      -0.077600
      5 O1          -5.6600     9.1930    -9.0320 oh         1 YS8      -0.627000
      6 P1          -6.2950     9.2030   -11.8520 p5         1 YS8       1.295500
      7 O2          -6.4420     8.1730   -12.9250 o          1 YS8      -0.925833
      8 O3          -5.2990    10.2270   -12.2940 o          1 YS8      -0.925833
      9 O4          -7.6110     9.8720   -11.6160 o          1 YS8      -0.925833
     10 H1          -4.6150     8.1670   -10.4930 h1         1 YS8      -0.010300
     11 H2          -6.2780     6.4030   -10.8490 hc         1 YS8       0.064700
     12 H3          -5.8770     5.1720    -8.7690 hc         1 YS8       0.006533
     13 H4          -4.4300     6.0900    -9.2200 hc         1 YS8       0.006533
     14 H5          -5.4780     6.6700    -7.9060 hc         1 YS8       0.006533
     15 H6          -8.1950     6.0560    -9.3240 hc         1 YS8       0.006533
     16 H7          -7.9040     7.6260    -8.5520 hc         1 YS8       0.006533
     17 H8          -8.4030     7.5430   -10.2570 hc         1 YS8       0.006533
     18 H9          -5.4650     8.5930    -8.2840 ho         1 YS8       0.345000
@<TRIPOS>BOND
     1     1     2 1   
     2     1     5 1   
     3     1     6 1   
     4     1    10 1   
     5     2     3 1   
     6     2     4 1   
     7     2    11 1   
     8     3    12 1   
     9     3    13 1   
    10     3    14 1   
    11     4    15 1   
    12     4    16 1   
    13     4    17 1   
    14     5    18 1   
    15     6     7 1   
    16     6     8 1   
    17     6     9 1   
@<TRIPOS>SUBSTRUCTURE
     1 YS8         1 TEMP              0 ****  ****    0 ROOT
