@<TRIPOS>MOLECULE
YS8
   18    17     1     0     0
SMALL
abcg2


@<TRIPOS>ATOM
      1 C4          -5.6600     8.3170   -10.2800 c3         1 YS8      -0.107700
      2 C2          -6.3280     6.9740    -9.9470 c3         1 YS8      -0.065700
      3 C1          -5.5240     6.1670    -8.9240 c3         1 YS8      -0.077600
      4 C3          -7.7720     7.1100    -9.4710 c3         1 YS8      -0.077600
      5 O1          -5.7090     9.2180    -9.1760 oh         1 YS8      -0.627000
      6 P1          -6.3060     9.1790   -11.8300 p5         1 YS8       1.295500
      7 O2          -6.0740     8.1260   -12.9280 o          1 YS8      -0.925833
      8 O3          -5.4230    10.4270   -11.9650 o          1 YS8      -0.925833
      9 O4          -7.7890     9.5090   -11.5920 o          1 YS8      -0.925833
     10 H1          -4.6040     8.0820   -10.5070 h1         1 YS8      -0.010300
     11 H2          -6.3270     6.4050   -10.8820 hc         1 YS8       0.064700
     12 H3          -5.9750     5.1870    -8.7530 hc         1 YS8       0.006533
     13 H4          -4.4960     6.0050    -9.2540 hc         1 YS8       0.006533
     14 H5          -5.4870     6.6630    -7.9490 hc         1 YS8       0.006533
     15 H6          -8.2340     6.1290    -9.3410 hc         1 YS8       0.006533
     16 H7          -7.8200     7.6200    -8.5060 hc         1 YS8       0.006533
     17 H8          -8.3580     7.6880   -10.1810 hc         1 YS8       0.006533
     18 H9          -5.2960     8.7900    -8.4190 ho         1 YS8       0.345000
@<TRIPOS>BOND
     1     1     2 1   
     2     1     5 1   
     3     1     6 1   
     4     1    10 1   
     5     2     3 1   
     6     2     4 1   
     7     2    11 1   
     8     3    12 1   
     9     3    13 1   
    10     3    14 1   
    11     4    15 1   
    12     4    16 1   
    13     4    17 1   
    14     5    18 1   
    15     6     7 1   
    16     6     8 1   
    17     6     9 1   
@<TRIPOS>SUBSTRUCTURE
     1 YS8         1 TEMP              0 ****  ****    0 ROOT
