@<TRIPOS>MOLECULE
YS9
   86    88     1     0     0
SMALL
bcc


@<TRIPOS>ATOM
      1 O30         -6.9880     2.5250     1.7690 oh         1 YS9      -0.596800
      2 C27         -6.0840     3.1500     0.8670 c3         1 YS9       0.158800
      3 C29         -6.7870     3.4660    -0.4540 c3         1 YS9      -0.121100
      4 C28         -5.5520     4.4490     1.4760 c3         1 YS9      -0.121100
      5 C26         -4.9180     2.1750     0.6700 c3         1 YS9      -0.060400
      6 C25         -5.2980     0.7760     0.1940 c3         1 YS9      -0.069400
      7 C20         -4.1070    -0.0750    -0.2710 c3         1 YS9      -0.053700
      8 C21         -4.5770    -1.4570    -0.7390 c3         1 YS9      -0.073400
      9 C22         -5.5860    -1.4470    -1.8840 c3         1 YS9      -0.077400
     10 C23         -5.8900    -2.8470    -2.4060 c3         1 YS9      -0.076400
     11 C24         -6.9200    -2.8530    -3.5270 c3         1 YS9      -0.088100
     12 C18         -2.9820    -0.1620     0.7910 c3         1 YS9      -0.044700
     13 C19         -3.4710    -0.8430     2.0690 c3         1 YS9      -0.088100
     14 C17         -1.7040    -0.7920     0.2190 c5         1 YS9      -0.055700
     15 C16         -1.1910    -0.0260    -1.0290 c5         1 YS9      -0.077400
     16 C15          0.3450    -0.1480    -1.0400 c5         1 YS9      -0.071400
     17 C13         -0.4520    -0.8900     1.1250 c5         1 YS9      -0.035000
     18 C14          0.6300    -1.1670     0.0500 c5         1 YS9      -0.036500
     19 C34         -0.1920     0.4330     1.8460 c3         1 YS9      -0.078100
     20 C12         -0.4290    -2.0620     2.1100 c6         1 YS9      -0.063400
     21 C11          0.9600    -2.2760     2.7110 c6         1 YS9      -0.071400
     22 C10          2.0590    -2.4110     1.6520 c6         1 YS9      -0.042200
     23 C9           2.0020    -1.3060     0.6310 c2         1 YS9      -0.078400
     24 C8           3.0410    -0.5450     0.2520 ce         1 YS9      -0.141000
     25 C7           4.4020    -0.6420     0.7490 ce         1 YS9      -0.110000
     26 C6           5.4550     0.0870     0.3490 c2         1 YS9      -0.107400
     27 C1           6.8220    -0.1340     0.9280 c6         1 YS9      -0.031700
     28 C2           7.8350    -0.4650    -0.1690 c6         1 YS9       0.187800
     29 O32          7.4950    -1.7340    -0.6910 oh         1 YS9      -0.590800
     30 C5           5.4200     1.1470    -0.7130 c6         1 YS9      -0.031700
     31 C4           6.4160     0.8210    -1.8320 c6         1 YS9       0.187800
     32 O31          6.3660     1.8610    -2.7740 oh         1 YS9      -0.590800
     33 C3           7.7840     0.6040    -1.2330 c2         1 YS9      -0.198400
     34 C33          8.8580     1.3140    -1.5590 c2         1 YS9      -0.199000
     35 H1          -7.7270     3.1250     1.9130 ho         1 YS9       0.398000
     36 H2          -7.6030     4.1750    -0.2950 hc         1 YS9       0.039533
     37 H3          -6.0950     3.9210    -1.1640 hc         1 YS9       0.039533
     38 H4          -7.2090     2.5750    -0.9180 hc         1 YS9       0.039533
     39 H5          -5.0630     4.2620     2.4340 hc         1 YS9       0.039533
     40 H6          -4.8270     4.9230     0.8140 hc         1 YS9       0.039533
     41 H7          -6.3600     5.1660     1.6440 hc         1 YS9       0.039533
     42 H8          -4.2260     2.6280    -0.0490 hc         1 YS9       0.043700
     43 H9          -4.3700     2.1110     1.6150 hc         1 YS9       0.043700
     44 H10         -5.8500     0.2530     0.9800 hc         1 YS9       0.047200
     45 H11         -5.9940     0.8610    -0.6430 hc         1 YS9       0.047200
     46 H12         -3.6920     0.4400    -1.1470 hc         1 YS9       0.040700
     47 H13         -3.7110    -2.0400    -1.0690 hc         1 YS9       0.039200
     48 H14         -5.0060    -2.0070     0.1050 hc         1 YS9       0.039200
     49 H15         -6.5240    -0.9840    -1.5650 hc         1 YS9       0.037700
     50 H16         -5.2040    -0.8280    -2.7040 hc         1 YS9       0.037700
     51 H17         -4.9640    -3.3130    -2.7570 hc         1 YS9       0.036200
     52 H18         -6.2460    -3.4700    -1.5790 hc         1 YS9       0.036200
     53 H19         -7.1250    -3.8640    -3.8800 hc         1 YS9       0.030700
     54 H20         -7.8660    -2.4200    -3.1970 hc         1 YS9       0.030700
     55 H21         -6.5750    -2.2700    -4.3830 hc         1 YS9       0.030700
     56 H22         -2.7200     0.8700     1.0500 hc         1 YS9       0.045700
     57 H23         -2.7820    -0.6840     2.8960 hc         1 YS9       0.034367
     58 H24         -4.4370    -0.4460     2.3860 hc         1 YS9       0.034367
     59 H25         -3.5850    -1.9210     1.9400 hc         1 YS9       0.034367
     60 H26         -1.9310    -1.8240    -0.0790 hc         1 YS9       0.045700
     61 H27         -1.6340    -0.4270    -1.9420 hc         1 YS9       0.040200
     62 H28         -1.4940     1.0230    -0.9770 hc         1 YS9       0.040200
     63 H29          0.7370    -0.4600    -2.0090 hc         1 YS9       0.044200
     64 H30          0.8080     0.8140    -0.8070 hc         1 YS9       0.044200
     65 H31          0.3730    -2.1570    -0.3590 hc         1 YS9       0.052700
     66 H32         -0.9430     0.6070     2.6200 hc         1 YS9       0.034033
     67 H33          0.7840     0.4500     2.3320 hc         1 YS9       0.034033
     68 H34         -0.2250     1.2880     1.1680 hc         1 YS9       0.034033
     69 H35         -1.1450    -1.9190     2.9200 hc         1 YS9       0.040700
     70 H36         -0.7390    -2.9700     1.5810 hc         1 YS9       0.040700
     71 H37          1.2040    -1.4470     3.3810 hc         1 YS9       0.039700
     72 H38          0.9540    -3.1730     3.3340 hc         1 YS9       0.039700
     73 H39          3.0300    -2.4730     2.1420 hc         1 YS9       0.046700
     74 H40          1.9190    -3.3640     1.1270 hc         1 YS9       0.046700
     75 H41          2.8590     0.2030    -0.5120 ha         1 YS9       0.122000
     76 H42          4.5900    -1.3830     1.5210 ha         1 YS9       0.120000
     77 H43          7.1700     0.7780     1.4260 hc         1 YS9       0.058200
     78 H44          6.8140    -0.9270     1.6780 hc         1 YS9       0.058200
     79 H45          8.8400    -0.4800     0.2730 h1         1 YS9       0.042200
     80 H46          8.1430    -1.9610    -1.3660 ho         1 YS9       0.402500
     81 H47          4.4270     1.2680    -1.1460 hc         1 YS9       0.058200
     82 H48          5.7030     2.1120    -0.2740 hc         1 YS9       0.058200
     83 H49          6.0940    -0.1270    -2.2870 h1         1 YS9       0.042200
     84 H50          6.8700     1.5950    -3.5500 ho         1 YS9       0.402500
     85 H51          8.8360     2.1090    -2.2930 ha         1 YS9       0.117000
     86 H52          9.8150     1.1220    -1.0890 ha         1 YS9       0.117000
@<TRIPOS>BOND
     1     1     2 1   
     2     1    35 1   
     3     2     3 1   
     4     2     4 1   
     5     2     5 1   
     6     3    36 1   
     7     3    37 1   
     8     3    38 1   
     9     4    39 1   
    10     4    40 1   
    11     4    41 1   
    12     5     6 1   
    13     5    42 1   
    14     5    43 1   
    15     6     7 1   
    16     6    44 1   
    17     6    45 1   
    18     7     8 1   
    19     7    12 1   
    20     7    46 1   
    21     8     9 1   
    22     8    47 1   
    23     8    48 1   
    24     9    10 1   
    25     9    49 1   
    26     9    50 1   
    27    10    11 1   
    28    10    51 1   
    29    10    52 1   
    30    11    53 1   
    31    11    54 1   
    32    11    55 1   
    33    12    13 1   
    34    12    14 1   
    35    12    56 1   
    36    13    57 1   
    37    13    58 1   
    38    13    59 1   
    39    14    15 1   
    40    14    17 1   
    41    14    60 1   
    42    15    16 1   
    43    15    61 1   
    44    15    62 1   
    45    16    18 1   
    46    16    63 1   
    47    16    64 1   
    48    17    18 1   
    49    17    19 1   
    50    17    20 1   
    51    18    23 1   
    52    18    65 1   
    53    19    66 1   
    54    19    67 1   
    55    19    68 1   
    56    20    21 1   
    57    20    69 1   
    58    20    70 1   
    59    21    22 1   
    60    21    71 1   
    61    21    72 1   
    62    22    23 1   
    63    22    73 1   
    64    22    74 1   
    65    23    24 2   
    66    24    25 1   
    67    24    75 1   
    68    25    26 2   
    69    25    76 1   
    70    26    27 1   
    71    26    30 1   
    72    27    28 1   
    73    27    77 1   
    74    27    78 1   
    75    28    29 1   
    76    28    33 1   
    77    28    79 1   
    78    29    80 1   
    79    30    31 1   
    80    30    81 1   
    81    30    82 1   
    82    31    32 1   
    83    31    33 1   
    84    31    83 1   
    85    32    84 1   
    86    33    34 2   
    87    34    85 1   
    88    34    86 1   
@<TRIPOS>SUBSTRUCTURE
     1 YS9         1 TEMP              0 ****  ****    0 ROOT
