@<TRIPOS>MOLECULE
YS9
   86    88     1     0     0
SMALL
No Charge or Current Charge


@<TRIPOS>ATOM
      1 O30         -7.1860     2.5280     1.8540 oh         1 YS9      -0.659000
      2 C27         -6.2940     3.1610     0.9350 c3         1 YS9       0.182000
      3 C29         -7.0860     3.4730    -0.3580 c3         1 YS9      -0.121100
      4 C28         -5.8170     4.4780     1.5890 c3         1 YS9      -0.121100
      5 C26         -5.0750     2.2200     0.6820 c3         1 YS9      -0.060400
      6 C25         -5.3990     0.8090     0.1110 c3         1 YS9      -0.069400
      7 C20         -4.1620    -0.0660    -0.2930 c3         1 YS9      -0.053700
      8 C21         -4.6080    -1.4640    -0.8350 c3         1 YS9      -0.073400
      9 C22         -5.5610    -1.4330    -2.0570 c3         1 YS9      -0.077400
     10 C23         -5.8210    -2.8340    -2.6510 c3         1 YS9      -0.076400
     11 C24         -6.7750    -2.8090    -3.8610 c3         1 YS9      -0.088100
     12 C18         -3.0440    -0.1780     0.8220 c3         1 YS9      -0.044700
     13 C19         -3.5810    -0.8770     2.1000 c3         1 YS9      -0.088100
     14 C17         -1.6780    -0.7770     0.3020 c5         1 YS9      -0.055700
     15 C16         -1.1120    -0.0060    -0.9540 c5         1 YS9      -0.077400
     16 C15          0.4420    -0.1400    -0.8930 c5         1 YS9      -0.071400
     17 C13         -0.4230    -0.8150     1.2690 c5         1 YS9      -0.035000
     18 C14          0.6360    -1.2340     0.1900 c5         1 YS9      -0.036500
     19 C34         -0.1530     0.5700     1.9560 c3         1 YS9      -0.078100
     20 C12         -0.4420    -1.9260     2.3710 c6         1 YS9      -0.063400
     21 C11          0.9410    -2.0930     3.0600 c6         1 YS9      -0.071400
     22 C10          2.0960    -2.3200     2.0510 c6         1 YS9      -0.042200
     23 C9           2.0290    -1.3740     0.8450 c2         1 YS9      -0.078400
     24 C8           3.0940    -0.7550     0.2600 ce         1 YS9      -0.191000
     25 C7           4.5020    -0.8650     0.6950 ce         1 YS9      -0.160000
     26 C6           5.5480    -0.1140     0.2620 c2         1 YS9      -0.107400
     27 C1           6.9660    -0.3530     0.7800 c6         1 YS9      -0.031700
     28 C2           7.9980    -0.5390    -0.3650 c6         1 YS9       0.211000
     29 O32          7.8280    -1.8060    -1.0020 oh         1 YS9      -0.653000
     30 C5           5.4810     1.0380    -0.7440 c6         1 YS9      -0.031700
     31 C4           6.4540     0.8010    -1.9240 c6         1 YS9       0.211000
     32 O31          6.3970     1.9080    -2.8280 oh         1 YS9      -0.653000
     33 C3           7.8870     0.5600    -1.4200 c2         1 YS9      -0.198400
     34 C33          8.9790     1.2330    -1.8420 c2         1 YS9      -0.299000
     35 H1          -7.9360     3.1440     1.9920 ho         1 YS9       0.437000
     36 H2          -7.8680     4.2180    -0.1700 hc         1 YS9       0.039533
     37 H3          -6.4200     3.8730    -1.1320 hc         1 YS9       0.039533
     38 H4          -7.5760     2.5780    -0.7580 hc         1 YS9       0.039533
     39 H5          -5.2920     4.2810     2.5320 hc         1 YS9       0.039533
     40 H6          -5.1280     5.0130     0.9240 hc         1 YS9       0.039533
     41 H7          -6.6620     5.1430     1.8050 hc         1 YS9       0.039533
     42 H8          -4.3770     2.7230     0.0010 hc         1 YS9       0.043700
     43 H9          -4.5490     2.1010     1.6360 hc         1 YS9       0.043700
     44 H10         -6.0300     0.2620     0.8210 hc         1 YS9       0.047200
     45 H11         -6.0090     0.9520    -0.7850 hc         1 YS9       0.047200
     46 H12         -3.7150     0.4640    -1.1430 hc         1 YS9       0.040700
     47 H13         -3.7250    -2.0360    -1.1360 hc         1 YS9       0.039200
     48 H14         -5.0880    -2.0320    -0.0300 hc         1 YS9       0.039200
     49 H15         -6.5250    -0.9990    -1.7660 hc         1 YS9       0.037700
     50 H16         -5.1340    -0.7860    -2.8330 hc         1 YS9       0.037700
     51 H17         -4.8680    -3.2820    -2.9600 hc         1 YS9       0.036200
     52 H18         -6.2450    -3.4850    -1.8760 hc         1 YS9       0.036200
     53 H19         -6.9280    -3.8230    -4.2480 hc         1 YS9       0.030700
     54 H20         -7.7520    -2.3990    -3.5770 hc         1 YS9       0.030700
     55 H21         -6.3610    -2.1920    -4.6680 hc         1 YS9       0.030700
     56 H22         -2.8060     0.8480     1.1190 hc         1 YS9       0.045700
     57 H23         -3.0000    -0.5750     2.9760 hc         1 YS9       0.034367
     58 H24         -4.6160    -0.5980     2.3190 hc         1 YS9       0.034367
     59 H25         -3.5390    -1.9680     2.0020 hc         1 YS9       0.034367
     60 H26         -1.9010    -1.8100     0.0140 hc         1 YS9       0.045700
     61 H27         -1.5110    -0.4300    -1.8820 hc         1 YS9       0.040200
     62 H28         -1.3960     1.0520    -0.9480 hc         1 YS9       0.040200
     63 H29          0.8660    -0.4330    -1.8600 hc         1 YS9       0.044200
     64 H30          0.9000     0.8160    -0.6160 hc         1 YS9       0.044200
     65 H31          0.3780    -2.2090    -0.2440 hc         1 YS9       0.052700
     66 H32         -0.8260     0.7250     2.8080 hc         1 YS9       0.034033
     67 H33          0.8730     0.6530     2.3320 hc         1 YS9       0.034033
     68 H34         -0.3100     1.4180     1.2800 hc         1 YS9       0.034033
     69 H35         -1.1810    -1.7110     3.1490 hc         1 YS9       0.040700
     70 H36         -0.7400    -2.8850     1.9250 hc         1 YS9       0.040700
     71 H37          1.1610    -1.2090     3.6730 hc         1 YS9       0.039700
     72 H38          0.9010    -2.9360     3.7630 hc         1 YS9       0.039700
     73 H39          3.0420    -2.2290     2.5950 hc         1 YS9       0.046700
     74 H40          2.0520    -3.3540     1.6830 hc         1 YS9       0.046700
     75 H41          2.9410    -0.1500    -0.6270 ha         1 YS9       0.172000
     76 H42          4.7170    -1.6460     1.4220 ha         1 YS9       0.170000
     77 H43          7.2670     0.5100     1.3890 hc         1 YS9       0.058200
     78 H44          7.0010    -1.2210     1.4520 hc         1 YS9       0.058200
     79 H45          9.0000    -0.4990     0.0890 h1         1 YS9       0.042200
     80 H46          8.4460    -1.8050    -1.7640 ho         1 YS9       0.441500
     81 H47          4.4710     1.2000    -1.1350 hc         1 YS9       0.058200
     82 H48          5.7530     1.9710    -0.2330 hc         1 YS9       0.058200
     83 H49          6.1220    -0.1080    -2.4490 h1         1 YS9       0.042200
     84 H50          7.0150     1.6880    -3.5580 ho         1 YS9       0.441500
     85 H51          8.9360     2.0290    -2.5860 ha         1 YS9       0.167000
     86 H52          9.9720     1.0150    -1.4450 ha         1 YS9       0.167000
@<TRIPOS>BOND
     1     1     2 1   
     2     1    35 1   
     3     2     3 1   
     4     2     4 1   
     5     2     5 1   
     6     3    36 1   
     7     3    37 1   
     8     3    38 1   
     9     4    39 1   
    10     4    40 1   
    11     4    41 1   
    12     5     6 1   
    13     5    42 1   
    14     5    43 1   
    15     6     7 1   
    16     6    44 1   
    17     6    45 1   
    18     7     8 1   
    19     7    12 1   
    20     7    46 1   
    21     8     9 1   
    22     8    47 1   
    23     8    48 1   
    24     9    10 1   
    25     9    49 1   
    26     9    50 1   
    27    10    11 1   
    28    10    51 1   
    29    10    52 1   
    30    11    53 1   
    31    11    54 1   
    32    11    55 1   
    33    12    13 1   
    34    12    14 1   
    35    12    56 1   
    36    13    57 1   
    37    13    58 1   
    38    13    59 1   
    39    14    15 1   
    40    14    17 1   
    41    14    60 1   
    42    15    16 1   
    43    15    61 1   
    44    15    62 1   
    45    16    18 1   
    46    16    63 1   
    47    16    64 1   
    48    17    18 1   
    49    17    19 1   
    50    17    20 1   
    51    18    23 1   
    52    18    65 1   
    53    19    66 1   
    54    19    67 1   
    55    19    68 1   
    56    20    21 1   
    57    20    69 1   
    58    20    70 1   
    59    21    22 1   
    60    21    71 1   
    61    21    72 1   
    62    22    23 1   
    63    22    73 1   
    64    22    74 1   
    65    23    24 2   
    66    24    25 1   
    67    24    75 1   
    68    25    26 2   
    69    25    76 1   
    70    26    27 1   
    71    26    30 1   
    72    27    28 1   
    73    27    77 1   
    74    27    78 1   
    75    28    29 1   
    76    28    33 1   
    77    28    79 1   
    78    29    80 1   
    79    30    31 1   
    80    30    81 1   
    81    30    82 1   
    82    31    32 1   
    83    31    33 1   
    84    31    83 1   
    85    32    84 1   
    86    33    34 2   
    87    34    85 1   
    88    34    86 1   
@<TRIPOS>SUBSTRUCTURE
     1 YS9         1 TEMP              0 ****  ****    0 ROOT
