@<TRIPOS>MOLECULE
YSA
   58    61     1     0     0
SMALL
bcc


@<TRIPOS>ATOM
      1 CD1         -4.4120     2.0100    -1.6430 ca         1 YSA      -0.089000
      2 CE1         -5.3650     3.0040    -1.4960 ca         1 YSA      -0.193500
      3 CZ          -5.2340     3.9490    -0.4810 ca         1 YSA       0.142100
      4 OH          -6.1840     4.9010    -0.3800 oh         1 YSA      -0.492100
      5 CE2         -4.1410     3.8760     0.3770 ca         1 YSA      -0.193500
      6 CD2         -3.1970     2.8720     0.2150 ca         1 YSA      -0.089000
      7 CG          -3.3090     1.9210    -0.7950 ca         1 YSA      -0.124300
      8 CB          -2.3080     0.8120    -0.9530 c3         1 YSA      -0.049100
      9 CA          -2.6200    -0.3680    -0.0250 c3         1 YSA       0.086500
     10 N           -2.5210    -0.1000     1.3970 n8         1 YSA      -0.927800
     11 C           -1.7960    -1.6020    -0.3900 c          1 YSA       0.697100
     12 O           -1.4410    -1.8810    -1.5070 o          1 YSA      -0.520100
     13 NAT         -1.5620    -2.4090     0.7050 ns         1 YSA      -0.695300
     14 SBI         -1.1420    -4.0020     0.6100 s6         1 YSA       1.590100
     15 OAD         -1.1760    -4.4950     1.9650 o          1 YSA      -0.615800
     16 OAE         -1.8780    -4.6480    -0.4420 o          1 YSA      -0.615800
     17 O5           0.3490    -3.9640     0.0760 os         1 YSA      -0.527500
     18 C5           1.4210    -3.6600     0.9860 c3         1 YSA       0.173400
     19 C4           2.5400    -3.0610     0.1650 c5         1 YSA       0.136100
     20 O4           2.1330    -1.8080    -0.3770 os         1 YSA      -0.383600
     21 C3           3.7840    -2.7880     1.0070 c5         1 YSA       0.088100
     22 O3           4.9110    -2.9210     0.1860 oh         1 YSA      -0.575800
     23 C2           3.5630    -1.3280     1.4080 c5         1 YSA       0.058100
     24 O2           4.7270    -0.6180     1.7030 oh         1 YSA      -0.570800
     25 C1           2.9200    -0.7680     0.1400 c5         1 YSA       0.258800
     26 N9           2.1000     0.3880     0.3690 na         1 YSA      -0.253000
     27 C8           1.0800     0.5150     1.2710 cc         1 YSA       0.406700
     28 N7           0.4770     1.6640     1.2110 nd         1 YSA      -0.573100
     29 C7           1.1260     2.3400     0.2060 ca         1 YSA      -0.238200
     30 C9           2.1330     1.5580    -0.3370 ca         1 YSA       0.479800
     31 N3           2.9470     1.8910    -1.3320 nb         1 YSA      -0.737000
     32 C10          2.6920     3.1060    -1.7860 ca         1 YSA       0.715900
     33 N1           1.7710     3.9660    -1.3640 nb         1 YSA      -0.823000
     34 C6           0.9630     3.6190    -0.3580 ca         1 YSA       0.779200
     35 N6           0.0380     4.4870     0.0570 nv         1 YSA      -0.950500
     36 HD1         -4.5300     1.2850    -2.4400 ha         1 YSA       0.133000
     37 HE1         -6.2120     3.0530    -2.1700 ha         1 YSA       0.139000
     38 HOH         -5.9830     5.5010     0.3460 ho         1 YSA       0.425000
     39 HE2         -4.0220     4.6010     1.1750 ha         1 YSA       0.139000
     40 HD2         -2.3590     2.8310     0.8980 ha         1 YSA       0.133000
     41 HB1         -1.3010     1.1790    -0.7420 hc         1 YSA       0.075200
     42 HB2         -2.3110     0.4630    -1.9860 hc         1 YSA       0.075200
     43 HA          -3.6500    -0.6880    -0.2230 h1         1 YSA       0.078700
     44 HN1         -1.7780     0.5620     1.5910 hn         1 YSA       0.368800
     45 HN2         -3.3790     0.2950     1.7530 hn         1 YSA       0.368800
     46 HAT         -1.8820    -2.0200     1.5960 hn         1 YSA       0.377500
     47 H5'1         1.0890    -2.9760     1.7710 h1         1 YSA       0.052700
     48 H5'2         1.7540    -4.5860     1.4550 h1         1 YSA       0.052700
     49 H4           2.7850    -3.7450    -0.6530 h1         1 YSA       0.119700
     50 H3           3.8370    -3.4490     1.8820 h1         1 YSA       0.057700
     51 H6           5.6240    -2.3980     0.5710 ho         1 YSA       0.427000
     52 H2           2.8490    -1.2920     2.2410 h1         1 YSA       0.047700
     53 H1           4.9360    -0.7300     2.6360 ho         1 YSA       0.419000
     54 H9           3.6930    -0.4620    -0.5730 h2         1 YSA       0.127700
     55 H8           0.8230    -0.2800     1.9560 h5         1 YSA       0.061800
     56 H7           3.3120     3.4500    -2.6060 h5         1 YSA       0.051100
     57 HN61        -0.5040     4.3120     0.8840 hn         1 YSA       0.448300
     58 HN62         0.0080     5.4110    -0.3370 hn         1 YSA       0.448300
@<TRIPOS>BOND
     1     1     2 ar  
     2     1     7 ar  
     3     1    36 1   
     4     2     3 ar  
     5     2    37 1   
     6     3     4 1   
     7     3     5 ar  
     8     4    38 1   
     9     5     6 ar  
    10     5    39 1   
    11     6     7 ar  
    12     6    40 1   
    13     7     8 1   
    14     8     9 1   
    15     8    41 1   
    16     8    42 1   
    17     9    10 1   
    18     9    11 1   
    19     9    43 1   
    20    10    44 1   
    21    10    45 1   
    22    11    12 2   
    23    11    13 1   
    24    13    14 1   
    25    13    46 1   
    26    14    15 2   
    27    14    16 2   
    28    14    17 1   
    29    17    18 1   
    30    18    19 1   
    31    18    47 1   
    32    18    48 1   
    33    19    20 1   
    34    19    21 1   
    35    19    49 1   
    36    20    25 1   
    37    21    22 1   
    38    21    23 1   
    39    21    50 1   
    40    22    51 1   
    41    23    24 1   
    42    23    25 1   
    43    23    52 1   
    44    24    53 1   
    45    25    26 1   
    46    25    54 1   
    47    26    27 1   
    48    26    30 1   
    49    27    28 2   
    50    27    55 1   
    51    28    29 1   
    52    29    30 ar  
    53    29    34 ar  
    54    30    31 ar  
    55    31    32 ar  
    56    32    33 ar  
    57    32    56 1   
    58    33    34 ar  
    59    34    35 1   
    60    35    57 1   
    61    35    58 1   
@<TRIPOS>SUBSTRUCTURE
     1 YSA         1 TEMP              0 ****  ****    0 ROOT
