@<TRIPOS>MOLECULE
YSA
   58    61     1     0     0
SMALL
No Charge or Current Charge


@<TRIPOS>ATOM
      1 CD1         -3.5660     2.0640    -1.3820 ca         1 YSA      -0.071000
      2 CE1         -4.1630     3.3140    -1.1400 ca         1 YSA      -0.175500
      3 CZ          -3.8130     4.0520    -0.0010 ca         1 YSA       0.142100
      4 OH          -4.3970     5.2620     0.2250 oh         1 YSA      -0.531100
      5 CE2         -2.8650     3.5430     0.9010 ca         1 YSA      -0.175500
      6 CD2         -2.2650     2.2950     0.6610 ca         1 YSA      -0.071000
      7 CG          -2.6140     1.5480    -0.4810 ca         1 YSA      -0.124300
      8 CB          -1.9660     0.1930    -0.7500 c3         1 YSA      -0.049100
      9 CA          -2.8910    -1.0090    -0.4210 c3         1 YSA       0.086500
     10 N           -3.3410    -0.9230     1.0200 n8         1 YSA      -1.038200
     11 C           -2.2150    -2.3600    -0.8530 c          1 YSA       0.630100
     12 O           -1.8480    -2.5820    -1.9980 o          1 YSA      -0.520100
     13 NAT         -2.0670    -3.2480     0.1580 ns         1 YSA      -0.628300
     14 SBI         -1.2050    -4.6550     0.1540 s6         1 YSA       1.448500
     15 OAD         -1.1700    -5.1570     1.5310 o          1 YSA      -0.545000
     16 OAE         -1.6730    -5.4940    -0.9530 o          1 YSA      -0.545000
     17 O5           0.2590    -4.0260    -0.2400 os         1 YSA      -0.550700
     18 C5           1.0370    -3.4580     0.8280 c3         1 YSA       0.196600
     19 C4           2.1650    -2.6090     0.1880 c5         1 YSA       0.159300
     20 O4           1.6510    -1.2690    -0.0750 os         1 YSA      -0.430000
     21 C3           3.4290    -2.4130     1.1040 c5         1 YSA       0.111300
     22 O3           4.6530    -2.4080     0.3560 oh         1 YSA      -0.698000
     23 C2           3.1660    -0.9960     1.6840 c5         1 YSA       0.081300
     24 O2           4.3710    -0.4050     2.2120 oh         1 YSA      -0.693000
     25 C1           2.6150    -0.3080     0.3950 c5         1 YSA       0.311300
     26 N9           1.9810     1.0060     0.5380 na         1 YSA      -0.282300
     27 C8           1.9550     1.7790     1.7040 cc         1 YSA       0.406700
     28 N7           1.4090     2.9900     1.4830 nd         1 YSA      -0.573100
     29 C7           1.0760     2.9470     0.1260 ca         1 YSA      -0.107600
     30 C9           1.4130     1.7510    -0.4580 ca         1 YSA       0.151500
     31 N3           1.1880     1.4990    -1.7630 nb         1 YSA      -0.211000
     32 C10          0.6020     2.5020    -2.4610 ca         1 YSA       0.189900
     33 N1           0.2400     3.7180    -1.9860 nb         1 YSA      -0.297000
     34 C6           0.4790     3.9360    -0.6830 ca         1 YSA       0.450900
     35 N6           0.1500     5.1680    -0.2090 nv         1 YSA      -1.060900
     36 HD1         -3.8430     1.4990    -2.2700 ha         1 YSA       0.115000
     37 HE1         -4.8970     3.7080    -1.8380 ha         1 YSA       0.121000
     38 HOH         -4.0190     5.6380     1.0480 ho         1 YSA       0.464000
     39 HE2         -2.5830     4.1100     1.7850 ha         1 YSA       0.121000
     40 HD2         -1.5260     1.9120     1.3620 ha         1 YSA       0.115000
     41 HB1         -1.0330     0.0920    -0.1800 hc         1 YSA       0.075200
     42 HB2         -1.6720     0.1380    -1.8060 hc         1 YSA       0.075200
     43 HA          -3.7900    -0.9320    -1.0490 h1         1 YSA       0.078700
     44 HN1         -2.5270    -0.7430     1.6210 hn         1 YSA       0.424000
     45 HN2         -3.8860    -0.0580     1.1350 hn         1 YSA       0.424000
     46 HAT         -2.4080    -3.0040     1.0700 hn         1 YSA       0.377500
     47 H5'1         0.4330    -2.8120     1.4800 h1         1 YSA       0.052700
     48 H5'2         1.4770    -4.2550     1.4420 h1         1 YSA       0.052700
     49 H4           2.4560    -3.0810    -0.7600 h1         1 YSA       0.119700
     50 H3           3.4760    -3.1680     1.9020 h1         1 YSA       0.057700
     51 H6           5.2210    -1.7400     0.8150 ho         1 YSA       0.526000
     52 H2           2.3840    -1.0320     2.4560 h1         1 YSA       0.047700
     53 H1           4.4290    -0.6420     3.1700 ho         1 YSA       0.518000
     54 H9           3.4160    -0.1870    -0.3460 h2         1 YSA       0.127700
     55 H8           2.3540     1.4290     2.6490 h5         1 YSA       0.061800
     56 H7           0.4110     2.3130    -3.5160 h5         1 YSA       0.051100
     57 HN61         0.5270     5.4200     0.7000 hn         1 YSA       0.503500
     58 HN62         0.0090     5.9210    -0.8750 hn         1 YSA       0.503500
@<TRIPOS>BOND
     1     1     2 ar  
     2     1     7 ar  
     3     1    36 1   
     4     2     3 ar  
     5     2    37 1   
     6     3     4 1   
     7     3     5 ar  
     8     4    38 1   
     9     5     6 ar  
    10     5    39 1   
    11     6     7 ar  
    12     6    40 1   
    13     7     8 1   
    14     8     9 1   
    15     8    41 1   
    16     8    42 1   
    17     9    10 1   
    18     9    11 1   
    19     9    43 1   
    20    10    44 1   
    21    10    45 1   
    22    11    12 2   
    23    11    13 1   
    24    13    14 1   
    25    13    46 1   
    26    14    15 2   
    27    14    16 2   
    28    14    17 1   
    29    17    18 1   
    30    18    19 1   
    31    18    47 1   
    32    18    48 1   
    33    19    20 1   
    34    19    21 1   
    35    19    49 1   
    36    20    25 1   
    37    21    22 1   
    38    21    23 1   
    39    21    50 1   
    40    22    51 1   
    41    23    24 1   
    42    23    25 1   
    43    23    52 1   
    44    24    53 1   
    45    25    26 1   
    46    25    54 1   
    47    26    27 1   
    48    26    30 1   
    49    27    28 2   
    50    27    55 1   
    51    28    29 1   
    52    29    30 ar  
    53    29    34 ar  
    54    30    31 ar  
    55    31    32 ar  
    56    32    33 ar  
    57    32    56 1   
    58    33    34 ar  
    59    34    35 1   
    60    35    57 1   
    61    35    58 1   
@<TRIPOS>SUBSTRUCTURE
     1 YSA         1 TEMP              0 ****  ****    0 ROOT
