@<TRIPOS>MOLECULE
YSB
   65    69     1     0     0
SMALL
No Charge or Current Charge


@<TRIPOS>ATOM
      1 C13        -20.5060   -12.0310   -25.5220 c3         1 YSB       0.187000
      2 C14        -19.9180   -12.5240   -24.1780 c3         1 YSB      -0.098100
      3 C11        -22.7640   -13.1660   -25.2170 cc         1 YSB      -0.139400
      4 C02        -27.4530   -13.8030   -23.7130 cx         1 YSB       0.098200
      5 C03        -27.6710   -15.2740   -23.9850 cx         1 YSB      -0.117400
      6 C04        -28.4040   -14.2360   -24.8050 cx         1 YSB      -0.117400
      7 C05        -26.1180   -13.0930   -24.0030 c3         1 YSB      -0.072400
      8 C07        -24.0530   -12.7720   -25.4370 cd         1 YSB      -0.034100
      9 C09        -22.7800   -11.0400   -25.9800 c          1 YSB       0.663100
     10 C15        -19.9050   -12.7120   -26.7610 ca         1 YSB      -0.131300
     11 C16        -19.8740   -12.0460   -28.0030 ca         1 YSB      -0.051200
     12 C18        -20.0620   -10.4590   -29.6670 cc         1 YSB      -0.045300
     13 C19        -20.4450    -9.1970   -30.3820 c          1 YSB       0.721200
     14 C22        -19.4610   -11.6200   -30.1860 cd         1 YSB      -0.160400
     15 C23        -18.7670   -11.7820   -31.4830 ca         1 YSB       0.097200
     16 C24        -18.8600   -12.9970   -32.1930 ca         1 YSB      -0.131000
     17 C25        -18.1890   -13.1750   -33.4140 ca         1 YSB      -0.067000
     18 C26        -17.4010   -12.1400   -33.9490 ca         1 YSB      -0.161300
     19 C27        -17.2980   -10.9270   -33.2370 ca         1 YSB       0.165000
     20 C29        -17.9720   -10.7520   -32.0200 ca         1 YSB      -0.108000
     21 C30        -16.6730   -12.3490   -35.2830 c3         1 YSB      -0.200100
     22 C32        -18.2490   -10.3310   -36.5690 c3         1 YSB      -0.323100
     23 C35        -19.3340   -12.6120   -29.1270 ca         1 YSB      -0.083800
     24 C36        -18.7570   -13.8920   -29.0970 ca         1 YSB      -0.060000
     25 C37        -18.7890   -14.6000   -27.8800 ca         1 YSB      -0.165000
     26 C38        -19.3630   -14.0220   -26.7250 ca         1 YSB      -0.106000
     27 F28        -16.5360    -9.9180   -33.7180 f          1 YSB      -0.199000
     28 N01        -28.0440   -13.2720   -22.5080 n8         1 YSB      -0.978200
     29 N12        -21.9810   -12.0900   -25.5350 n          1 YSB      -0.320000
     30 N17        -20.3220   -10.7740   -28.3160 na         1 YSB      -0.192700
     31 O08        -24.0900   -11.4740   -25.9020 os         1 YSB      -0.288200
     32 O10        -22.4000    -9.9460   -26.3740 o          1 YSB      -0.526000
     33 O20        -20.9300    -8.2980   -29.7080 o          1 YSB      -0.692000
     34 O21        -20.3330    -9.1090   -31.5960 o          1 YSB      -0.692000
     35 O33        -18.8350   -12.8980   -36.7520 o          1 YSB      -0.534500
     36 O34        -16.7620   -12.0370   -37.9270 o          1 YSB      -0.534500
     37 S31        -17.6630   -12.0130   -36.7660 s6         1 YSB       1.062000
     38 H131       -20.2200   -10.9720   -25.5790 h1         1 YSB       0.087700
     39 H142       -20.2910   -11.9040   -23.3540 hc         1 YSB       0.041033
     40 H141       -20.1930   -13.5630   -23.9670 hc         1 YSB       0.041033
     41 H143       -18.8240   -12.4490   -24.1890 hc         1 YSB       0.041033
     42 H111       -22.3150   -14.0960   -24.8810 h4         1 YSB       0.233000
     43 H032       -28.2500   -15.8460   -23.2640 hc         1 YSB       0.074450
     44 H031       -26.8860   -15.8420   -24.4760 hc         1 YSB       0.074450
     45 H041       -29.4710   -14.1240   -24.6330 hc         1 YSB       0.074450
     46 H042       -28.1060   -14.1140   -25.8430 hc         1 YSB       0.074450
     47 H051       -25.4500   -13.2270   -23.1430 hc         1 YSB       0.048200
     48 H052       -26.2990   -12.0130   -24.0800 hc         1 YSB       0.048200
     49 H062       -25.9650   -13.3770   -26.1600 hc         1 YSB       0.060200
     50 H061       -25.1220   -14.6040   -25.2210 hc         1 YSB       0.060200
     51 H241       -19.4870   -13.7990   -31.8130 ha         1 YSB       0.120000
     52 H251       -18.2880   -14.1180   -33.9470 ha         1 YSB       0.110000
     53 H291       -17.8490    -9.8190   -31.4810 ha         1 YSB       0.150000
     54 H301       -16.3390   -13.3880   -35.3770 h1         1 YSB       0.096700
     55 H302       -15.7950   -11.6980   -35.3540 h1         1 YSB       0.096700
     56 H321       -18.8750   -10.3000   -35.6710 h1         1 YSB       0.107033
     57 H322       -17.3720    -9.6830   -36.4630 h1         1 YSB       0.107033
     58 H323       -18.8260   -10.0750   -37.4630 h1         1 YSB       0.107033
     59 H361       -18.2890   -14.3340   -29.9710 ha         1 YSB       0.109000
     60 H371       -18.3610   -15.5980   -27.8270 ha         1 YSB       0.095000
     61 H381       -19.3690   -14.6020   -25.8060 ha         1 YSB       0.091000
     62 H1         -27.4180   -12.5690   -22.0990 hn         1 YSB       0.397500
     63 H012       -28.8830   -12.7310   -22.7470 hn         1 YSB       0.397500
     64 H171       -20.8300   -10.1620   -27.6820 hn         1 YSB       0.386000
     65 C06        -25.3430   -13.5320   -25.2710 c3         1 YSB       0.011800
@<TRIPOS>BOND
     1     1     2 1   
     2     1    10 1   
     3     1    29 1   
     4     1    38 1   
     5     2    39 1   
     6     2    40 1   
     7     2    41 1   
     8     3     8 2   
     9     3    29 1   
    10     3    42 1   
    11     4     5 1   
    12     4     6 1   
    13     4     7 1   
    14     4    28 1   
    15     5     6 1   
    16     5    43 1   
    17     5    44 1   
    18     6    45 1   
    19     6    46 1   
    20     7    47 1   
    21     7    48 1   
    22     7    65 1   
    23     8    31 1   
    24     8    65 1   
    25     9    29 1   
    26     9    31 1   
    27     9    32 2   
    28    10    11 ar  
    29    10    26 ar  
    30    11    23 ar  
    31    11    30 1   
    32    12    13 1   
    33    12    14 2   
    34    12    30 1   
    35    13    33 1   
    36    13    34 1   
    37    14    15 1   
    38    14    23 1   
    39    15    16 ar  
    40    15    20 ar  
    41    16    17 ar  
    42    16    51 1   
    43    17    18 ar  
    44    17    52 1   
    45    18    19 ar  
    46    18    21 1   
    47    19    20 ar  
    48    19    27 1   
    49    20    53 1   
    50    21    37 1   
    51    21    54 1   
    52    21    55 1   
    53    22    37 1   
    54    22    56 1   
    55    22    57 1   
    56    22    58 1   
    57    23    24 ar  
    58    24    25 ar  
    59    24    59 1   
    60    25    26 ar  
    61    25    60 1   
    62    26    61 1   
    63    28    62 1   
    64    28    63 1   
    65    30    64 1   
    66    35    37 2   
    67    36    37 2   
    68    49    65 1   
    69    50    65 1   
@<TRIPOS>SUBSTRUCTURE
     1 YSB         1 TEMP              0 ****  ****    0 ROOT
