@<TRIPOS>MOLECULE
YSB
   65    69     1     0     0
SMALL
abcg2


@<TRIPOS>ATOM
      1 C13        -20.1820   -11.8030   -25.1070 c3         1 YSB       0.187000
      2 C14        -19.7980   -12.3700   -23.7490 c3         1 YSB      -0.098100
      3 C11        -22.3910   -13.0080   -25.3990 cc         1 YSB      -0.139400
      4 C02        -27.2350   -13.8850   -24.7840 cx         1 YSB       0.098200
      5 C03        -27.2900   -15.2810   -25.3260 cx         1 YSB      -0.117400
      6 C04        -27.8900   -14.1440   -26.1050 cx         1 YSB      -0.117400
      7 C05        -25.9180   -13.1340   -24.6920 c3         1 YSB      -0.072400
      8 C07        -23.6480   -12.6280   -25.6280 cd         1 YSB      -0.034100
      9 C09        -22.4290   -10.7750   -25.4730 c          1 YSB       0.663100
     10 C15        -19.5230   -12.4700   -26.2910 ca         1 YSB      -0.131300
     11 C16        -19.5450   -11.8450   -27.5460 ca         1 YSB      -0.051200
     12 C18        -19.8360   -10.4220   -29.2540 cc         1 YSB      -0.045300
     13 C19        -20.3560    -9.1390   -29.8640 c          1 YSB       0.721200
     14 C22        -19.2260   -11.5350   -29.7890 cd         1 YSB      -0.160400
     15 C23        -18.8250   -11.8090   -31.1710 ca         1 YSB       0.097200
     16 C24        -19.2360   -12.9920   -31.7900 ca         1 YSB      -0.131000
     17 C25        -18.8480   -13.2890   -33.0840 ca         1 YSB      -0.067000
     18 C26        -18.0250   -12.4290   -33.8060 ca         1 YSB      -0.161300
     19 C27        -17.6130   -11.2710   -33.1620 ca         1 YSB       0.165000
     20 C29        -17.9920   -10.9450   -31.8790 ca         1 YSB      -0.108000
     21 C30        -17.6310   -12.7430   -35.2080 c3         1 YSB      -0.200100
     22 C32        -18.9470   -10.4860   -36.3430 c3         1 YSB      -0.323100
     23 C35        -19.0270   -12.4550   -28.7070 ca         1 YSB      -0.083800
     24 C36        -18.4390   -13.7220   -28.6090 ca         1 YSB      -0.060000
     25 C37        -18.3980   -14.3380   -27.3770 ca         1 YSB      -0.165000
     26 C38        -18.9390   -13.7210   -26.2360 ca         1 YSB      -0.106000
     27 F28        -16.8010   -10.4250   -33.8210 f          1 YSB      -0.199000
     28 N01        -28.1520   -13.6290   -23.7030 n8         1 YSB      -0.978200
     29 N12        -21.6280   -11.8490   -25.2910 n          1 YSB      -0.320000
     30 N17        -20.0200   -10.6250   -27.9150 na         1 YSB      -0.192700
     31 O08        -23.6800   -11.2500   -25.6660 os         1 YSB      -0.288200
     32 O10        -22.1510    -9.5950   -25.4880 o          1 YSB      -0.526000
     33 O20        -20.7990    -8.3150   -29.0400 o          1 YSB      -0.692000
     34 O21        -20.3060    -9.0390   -31.1000 o          1 YSB      -0.692000
     35 O33        -20.1920   -12.7710   -35.9440 o          1 YSB      -0.534500
     36 O34        -18.4270   -12.6770   -37.7240 o          1 YSB      -0.534500
     37 S31        -18.9010   -12.2650   -36.4040 s6         1 YSB       1.062000
     38 H131       -19.9160   -10.7430   -25.1090 h1         1 YSB       0.087700
     39 H142       -20.2700   -11.7850   -22.9600 hc         1 YSB       0.041033
     40 H141       -20.1070   -13.4080   -23.6290 hc         1 YSB       0.041033
     41 H143       -18.7190   -12.3190   -23.6110 hc         1 YSB       0.041033
     42 H111       -21.9720   -13.9950   -25.3060 h4         1 YSB       0.233000
     43 H032       -27.9660   -15.9720   -24.8380 hc         1 YSB       0.074450
     44 H031       -26.3860   -15.7400   -25.7040 hc         1 YSB       0.074450
     45 H041       -28.9700   -14.0690   -26.1430 hc         1 YSB       0.074450
     46 H042       -27.3930   -13.8300   -27.0150 hc         1 YSB       0.074450
     47 H051       -25.4440   -13.3990   -23.7410 hc         1 YSB       0.048200
     48 H052       -26.1450   -12.0640   -24.6350 hc         1 YSB       0.048200
     49 H062       -25.3470   -13.0980   -26.7850 hc         1 YSB       0.060200
     50 H061       -24.6490   -14.4300   -25.8820 hc         1 YSB       0.060200
     51 H241       -19.8840   -13.6770   -31.2590 ha         1 YSB       0.120000
     52 H251       -19.1850   -14.2070   -33.5470 ha         1 YSB       0.110000
     53 H291       -17.6350   -10.0290   -31.4290 ha         1 YSB       0.150000
     54 H301       -17.5260   -13.8200   -35.3630 h1         1 YSB       0.096700
     55 H302       -16.7040   -12.2650   -35.5260 h1         1 YSB       0.096700
     56 H321       -19.2700   -10.1550   -35.3590 h1         1 YSB       0.107033
     57 H322       -17.9670   -10.0830   -36.5870 h1         1 YSB       0.107033
     58 H323       -19.6750   -10.1700   -37.0900 h1         1 YSB       0.107033
     59 H361       -18.0210   -14.2090   -29.4810 ha         1 YSB       0.109000
     60 H371       -17.9450   -15.3160   -27.2790 ha         1 YSB       0.095000
     61 H381       -18.8920   -14.2510   -25.2940 ha         1 YSB       0.091000
     62 H1         -27.7110   -13.8610   -22.8200 hn         1 YSB       0.397500
     63 H012       -28.3590   -12.6380   -23.6600 hn         1 YSB       0.397500
     64 H171       -20.4660    -9.9330   -27.3320 hn         1 YSB       0.386000
     65 C06        -24.9110   -13.3730   -25.8200 c3         1 YSB       0.011800
@<TRIPOS>BOND
     1     1     2 1   
     2     1    10 1   
     3     1    29 1   
     4     1    38 1   
     5     2    39 1   
     6     2    40 1   
     7     2    41 1   
     8     3     8 2   
     9     3    29 1   
    10     3    42 1   
    11     4     5 1   
    12     4     6 1   
    13     4     7 1   
    14     4    28 1   
    15     5     6 1   
    16     5    43 1   
    17     5    44 1   
    18     6    45 1   
    19     6    46 1   
    20     7    47 1   
    21     7    48 1   
    22     7    65 1   
    23     8    31 1   
    24     8    65 1   
    25     9    29 1   
    26     9    31 1   
    27     9    32 2   
    28    10    11 ar  
    29    10    26 ar  
    30    11    23 ar  
    31    11    30 1   
    32    12    13 1   
    33    12    14 2   
    34    12    30 1   
    35    13    33 1   
    36    13    34 1   
    37    14    15 1   
    38    14    23 1   
    39    15    16 ar  
    40    15    20 ar  
    41    16    17 ar  
    42    16    51 1   
    43    17    18 ar  
    44    17    52 1   
    45    18    19 ar  
    46    18    21 1   
    47    19    20 ar  
    48    19    27 1   
    49    20    53 1   
    50    21    37 1   
    51    21    54 1   
    52    21    55 1   
    53    22    37 1   
    54    22    56 1   
    55    22    57 1   
    56    22    58 1   
    57    23    24 ar  
    58    24    25 ar  
    59    24    59 1   
    60    25    26 ar  
    61    25    60 1   
    62    26    61 1   
    63    28    62 1   
    64    28    63 1   
    65    30    64 1   
    66    35    37 2   
    67    36    37 2   
    68    49    65 1   
    69    50    65 1   
@<TRIPOS>SUBSTRUCTURE
     1 YSB         1 TEMP              0 ****  ****    0 ROOT
