@<TRIPOS>MOLECULE
YSC
   56    58     1     0     0
SMALL
abcg2


@<TRIPOS>ATOM
      1 N            1.2560     0.8150     1.9330 n8         1 YSC      -0.983200
      2 CA           1.5480    -0.1900     0.9460 c3         1 YSC       0.078500
      3 CB           3.0550    -0.4360     0.6940 c3         1 YSC      -0.059100
      4 CG           3.7100     0.8280     0.2120 ca         1 YSC      -0.131300
      5 CD2          3.5740     1.2340    -1.1140 ca         1 YSC      -0.063500
      6 CE2          4.1170     2.4250    -1.5690 ca         1 YSC      -0.182000
      7 CZ           4.8150     3.2510    -0.6890 ca         1 YSC       0.132100
      8 OH           5.3300     4.3970    -1.1770 oh         1 YSC      -0.532100
      9 CE1          4.9550     2.8650     0.6400 ca         1 YSC      -0.182000
     10 CD1          4.4050     1.6670     1.0770 ca         1 YSC      -0.063500
     11 C            0.8250    -1.4730     1.3170 c          1 YSC       0.639100
     12 O            0.2470    -1.6620     2.3550 o          1 YSC      -0.502100
     13 NAT          0.8770    -2.4410     0.3250 ns         1 YSC      -0.627300
     14 SBI          0.0540    -3.8820     0.3890 s6         1 YSC       1.445500
     15 OAD          0.3640    -4.5430    -0.8550 o          1 YSC      -0.542500
     16 OAE          0.2610    -4.5350     1.6490 o          1 YSC      -0.542500
     17 O5          -1.4620    -3.4290     0.4080 os         1 YSC      -0.554700
     18 C5          -2.0010    -2.7960    -0.7760 c3         1 YSC       0.196600
     19 C4          -3.1130    -1.8720    -0.3530 c5         1 YSC       0.171300
     20 O4          -2.5920    -0.8360     0.4500 os         1 YSC      -0.428000
     21 C1          -3.1650     0.4030     0.1360 c5         1 YSC       0.326700
     22 C2          -4.1090     0.2010    -1.0610 c5         1 YSC       0.115300
     23 O2          -5.4270     0.2380    -0.5780 oh         1 YSC      -0.721000
     24 C3          -3.7640    -1.2120    -1.5720 c5         1 YSC       0.094300
     25 O3          -4.9010    -1.9450    -1.9530 oh         1 YSC      -0.715000
     26 N1          -2.1160     1.3960    -0.0210 n          1 YSC      -0.318000
     27 C6          -2.0300     2.4130     0.8730 cc         1 YSC       0.044600
     28 C7          -1.0160     3.2990     0.8460 cd         1 YSC      -0.474600
     29 C8          -0.0020     3.0650    -0.1320 cd         1 YSC       0.793500
     30 N4           1.0950     3.8220    -0.1440 nv         1 YSC      -1.036200
     31 N3          -0.1020     2.1040    -1.0290 nc         1 YSC      -0.792100
     32 C9          -1.1480     1.2570    -1.0250 c          1 YSC       0.723400
     33 O1          -1.2780     0.3680    -1.8570 o          1 YSC      -0.593000
     34 H1           1.7220     0.5990     2.8070 hn         1 YSC       0.405500
     35 H2           1.6230     1.7050     1.6250 hn         1 YSC       0.405500
     36 H4           1.1150     0.1420    -0.0030 h1         1 YSC       0.097700
     37 H5           3.5230    -0.7830     1.6190 hc         1 YSC       0.058200
     38 H6           3.2040    -1.2260    -0.0480 hc         1 YSC       0.058200
     39 H7           3.0310     0.6100    -1.8140 ha         1 YSC       0.120000
     40 H8           4.0060     2.7150    -2.6070 ha         1 YSC       0.126000
     41 H9           5.7830     4.8850    -0.4800 ho         1 YSC       0.466000
     42 H10          5.4970     3.4930     1.3390 ha         1 YSC       0.126000
     43 H11          4.5300     1.3850     2.1150 ha         1 YSC       0.120000
     44 H12          1.3650    -2.2590    -0.5440 hn         1 YSC       0.344500
     45 H13         -1.2330    -2.2210    -1.2970 h1         1 YSC       0.068700
     46 H14         -2.3860    -3.5690    -1.4420 h1         1 YSC       0.068700
     47 H15         -3.8740    -2.4350     0.2040 h1         1 YSC       0.092700
     48 H16         -3.7660     0.7600     0.9770 h2         1 YSC       0.084700
     49 H17         -3.9540     0.9630    -1.8310 h1         1 YSC       0.080700
     50 H18         -5.9030    -0.4880    -1.0060 ho         1 YSC       0.530000
     51 H19         -3.0530    -1.1370    -2.3940 h1         1 YSC       0.086700
     52 H20         -5.0490    -1.8200    -2.8960 ho         1 YSC       0.520000
     53 H21         -2.8180     2.4750     1.6100 h4         1 YSC       0.208000
     54 H22         -0.9520     4.1010     1.5650 ha         1 YSC       0.206000
     55 H23          1.2300     4.5650     0.5190 hn         1 YSC       0.504000
     56 H24          1.8430     3.6100    -0.7850 hn         1 YSC       0.504000
@<TRIPOS>BOND
     1     1     2 1   
     2     1    34 1   
     3     1    35 1   
     4     2     3 1   
     5     2    11 1   
     6     2    36 1   
     7     3     4 1   
     8     3    37 1   
     9     3    38 1   
    10     4     5 ar  
    11     4    10 ar  
    12     5     6 ar  
    13     5    39 1   
    14     6     7 ar  
    15     6    40 1   
    16     7     8 1   
    17     7     9 ar  
    18     8    41 1   
    19     9    10 ar  
    20     9    42 1   
    21    10    43 1   
    22    11    12 2   
    23    11    13 1   
    24    13    14 1   
    25    13    44 1   
    26    14    15 2   
    27    14    16 2   
    28    14    17 1   
    29    17    18 1   
    30    18    19 1   
    31    18    45 1   
    32    18    46 1   
    33    19    20 1   
    34    19    24 1   
    35    19    47 1   
    36    20    21 1   
    37    21    22 1   
    38    21    26 1   
    39    21    48 1   
    40    22    23 1   
    41    22    24 1   
    42    22    49 1   
    43    23    50 1   
    44    24    25 1   
    45    24    51 1   
    46    25    52 1   
    47    26    27 1   
    48    26    32 1   
    49    27    28 2   
    50    27    53 1   
    51    28    29 1   
    52    28    54 1   
    53    29    30 1   
    54    29    31 2   
    55    30    55 1   
    56    30    56 1   
    57    31    32 1   
    58    32    33 2   
@<TRIPOS>SUBSTRUCTURE
     1 YSC         1 TEMP              0 ****  ****    0 ROOT
