@<TRIPOS>MOLECULE
YSC
   56    58     1     0     0
SMALL
No Charge or Current Charge


@<TRIPOS>ATOM
      1 N            0.6910    -0.1570     2.4980 n8         1 YSC      -0.983200
      2 CA           1.3460    -0.8410     1.3280 c3         1 YSC       0.078500
      3 CB           2.8670    -0.5540     1.3300 c3         1 YSC      -0.059100
      4 CG           3.1690     0.8690     0.8710 ca         1 YSC      -0.131300
      5 CD2          3.2680     1.1470    -0.5070 ca         1 YSC      -0.063500
      6 CE2          3.4970     2.4600    -0.9480 ca         1 YSC      -0.182000
      7 CZ           3.6140     3.5040    -0.0210 ca         1 YSC       0.132100
      8 OH           3.7820     4.7800    -0.4650 oh         1 YSC      -0.532100
      9 CE1          3.5330     3.2330     1.3540 ca         1 YSC      -0.182000
     10 CD1          3.3160     1.9170     1.8010 ca         1 YSC      -0.063500
     11 C            1.0440    -2.3760     1.1690 c          1 YSC       0.639100
     12 O            1.1110    -3.1570     2.1070 o          1 YSC      -0.502100
     13 NAT          0.6720    -2.7440    -0.0860 ns         1 YSC      -0.627300
     14 SBI          0.0450    -4.1890    -0.6020 s6         1 YSC       1.445500
     15 OAD          0.1530    -4.2150    -2.0630 o          1 YSC      -0.542500
     16 OAE          0.5830    -5.2810     0.2150 o          1 YSC      -0.542500
     17 O5          -1.5290    -3.9400    -0.1860 os         1 YSC      -0.554700
     18 C5          -2.3530    -3.1050    -1.0390 c3         1 YSC       0.196600
     19 C4          -2.5920    -1.7400    -0.3410 c5         1 YSC       0.171300
     20 O4          -1.4430    -0.8880    -0.4740 os         1 YSC      -0.428000
     21 C1          -1.8530     0.3940     0.0320 c5         1 YSC       0.326700
     22 C2          -3.3930     0.5370    -0.2760 c5         1 YSC       0.115300
     23 O2          -4.2010     0.6180     0.9060 oh         1 YSC      -0.721000
     24 C3          -3.7000    -0.8350    -0.9680 c5         1 YSC       0.094300
     25 O3          -5.0490    -1.2630    -0.6730 oh         1 YSC      -0.715000
     26 N1          -1.1140     1.5330    -0.5730 n          1 YSC      -0.318000
     27 C6          -0.5970     2.5120     0.2710 cc         1 YSC       0.044600
     28 C7           0.1630     3.5210    -0.2670 cd         1 YSC      -0.474600
     29 C8           0.3680     3.4970    -1.6580 cd         1 YSC       0.793500
     30 N4           1.1020     4.4220    -2.2370 nv         1 YSC      -1.036200
     31 N3          -0.1130     2.6060    -2.4550 nc         1 YSC      -0.792100
     32 C9          -0.8740     1.5800    -1.9630 c          1 YSC       0.723400
     33 O1          -1.3380     0.7690    -2.7460 o          1 YSC      -0.593000
     34 H1           0.9760    -0.6270     3.3670 hn         1 YSC       0.405500
     35 H2           1.0880     0.7850     2.5920 hn         1 YSC       0.405500
     36 H4           0.9470    -0.3690     0.4190 h1         1 YSC       0.097700
     37 H5           3.2860    -0.7480     2.3260 hc         1 YSC       0.058200
     38 H6           3.3650    -1.2620     0.6550 hc         1 YSC       0.058200
     39 H7           3.1570     0.3480    -1.2370 ha         1 YSC       0.120000
     40 H8           3.5680     2.6670    -2.0130 ha         1 YSC       0.126000
     41 H9           3.9820     5.3530     0.3070 ho         1 YSC       0.466000
     42 H10          3.6260     4.0370     2.0810 ha         1 YSC       0.126000
     43 H11          3.2470     1.7160     2.8690 ha         1 YSC       0.120000
     44 H12          0.5430    -2.0380    -0.7890 hn         1 YSC       0.344500
     45 H13         -1.9320    -2.9430    -2.0400 h1         1 YSC       0.068700
     46 H14         -3.3310    -3.5850    -1.1730 h1         1 YSC       0.068700
     47 H15         -2.7900    -1.9230     0.7250 h1         1 YSC       0.092700
     48 H16         -1.6840     0.4260     1.1160 h2         1 YSC       0.084700
     49 H17         -3.6030     1.3770    -0.9540 h1         1 YSC       0.080700
     50 H18         -4.9030    -0.0610     0.7120 ho         1 YSC       0.530000
     51 H19         -3.5430    -0.7480    -2.0550 h1         1 YSC       0.086700
     52 H20         -5.3970    -1.7450    -1.4640 ho         1 YSC       0.520000
     53 H21         -0.8440     2.3810     1.3220 h4         1 YSC       0.208000
     54 H22          0.5940     4.3000     0.3490 ha         1 YSC       0.206000
     55 H23          1.8910     4.7240    -1.6780 hn         1 YSC       0.504000
     56 H24          1.3280     4.1900    -3.1930 hn         1 YSC       0.504000
@<TRIPOS>BOND
     1     1     2 1   
     2     1    34 1   
     3     1    35 1   
     4     2     3 1   
     5     2    11 1   
     6     2    36 1   
     7     3     4 1   
     8     3    37 1   
     9     3    38 1   
    10     4     5 ar  
    11     4    10 ar  
    12     5     6 ar  
    13     5    39 1   
    14     6     7 ar  
    15     6    40 1   
    16     7     8 1   
    17     7     9 ar  
    18     8    41 1   
    19     9    10 ar  
    20     9    42 1   
    21    10    43 1   
    22    11    12 2   
    23    11    13 1   
    24    13    14 1   
    25    13    44 1   
    26    14    15 2   
    27    14    16 2   
    28    14    17 1   
    29    17    18 1   
    30    18    19 1   
    31    18    45 1   
    32    18    46 1   
    33    19    20 1   
    34    19    24 1   
    35    19    47 1   
    36    20    21 1   
    37    21    22 1   
    38    21    26 1   
    39    21    48 1   
    40    22    23 1   
    41    22    24 1   
    42    22    49 1   
    43    23    50 1   
    44    24    25 1   
    45    24    51 1   
    46    25    52 1   
    47    26    27 1   
    48    26    32 1   
    49    27    28 2   
    50    27    53 1   
    51    28    29 1   
    52    28    54 1   
    53    29    30 1   
    54    29    31 2   
    55    30    55 1   
    56    30    56 1   
    57    31    32 1   
    58    32    33 2   
@<TRIPOS>SUBSTRUCTURE
     1 YSC         1 TEMP              0 ****  ****    0 ROOT
