@<TRIPOS>MOLECULE
YSD
   77    79     1     0     0
SMALL
No Charge or Current Charge


@<TRIPOS>ATOM
      1 CAB          7.5090     3.1750     1.6080 c3         1 YSD      -0.084600
      2 CAK          6.4430     2.3220     0.8760 c3         1 YSD      -0.084400
      3 CBD          6.9510     1.0200     0.1700 c3         1 YSD       0.190000
      4 CAL          8.1210     1.3480    -0.8180 c3         1 YSD      -0.084400
      5 CAC          8.7110     0.1600    -1.6180 c3         1 YSD      -0.084600
      6 OAH          7.4550     0.1370     1.1760 oh         1 YSD      -0.659000
      7 CAS          5.7850     0.2880    -0.5770 c3         1 YSD      -0.106400
      8 CAP          4.5190    -0.0660     0.2630 c3         1 YSD      -0.078400
      9 CAY          3.4010    -0.8460    -0.5050 c3         1 YSD      -0.047700
     10 CAD          3.8570    -2.2980    -0.8010 c3         1 YSD      -0.087100
     11 CBC          2.0160    -0.7840     0.2910 c5         1 YSD      -0.054700
     12 CAQ          1.4780     0.6920     0.4560 c5         1 YSD      -0.077400
     13 CAO         -0.0790     0.6010     0.4700 c5         1 YSD      -0.071400
     14 CBB         -0.3150    -0.9190     0.6670 c5         1 YSD      -0.034500
     15 CBE          0.7380    -1.5360    -0.3180 c5         1 YSD      -0.035000
     16 CAE          0.4490    -1.2390    -1.8550 c3         1 YSD      -0.079100
     17 CAR          0.7190    -3.0880    -0.1090 c6         1 YSD      -0.063400
     18 CAM         -0.6770    -3.7080    -0.3980 c6         1 YSD      -0.072400
     19 CAN         -1.8210    -3.0180     0.3880 c6         1 YSD      -0.042200
     20 CAX         -1.7190    -1.4880     0.3620 c2         1 YSD      -0.080400
     21 CAJ         -2.7580    -0.6210     0.1920 ce         1 YSD      -0.189000
     22 CAI         -4.1720    -0.9990    -0.0150 ce         1 YSD      -0.162000
     23 CAW         -5.1880    -0.1750    -0.3780 c2         1 YSD      -0.105400
     24 CAU         -5.0760     1.3200    -0.6910 c6         1 YSD      -0.032200
     25 CAT         -6.6160    -0.6960    -0.5330 c6         1 YSD      -0.032200
     26 CAZ         -7.6480     0.1320     0.2800 c6         1 YSD       0.212000
     27 OAF         -7.5180    -0.1250     1.6790 oh         1 YSD      -0.654000
     28 CAV         -7.4940     1.6320     0.0390 c2         1 YSD      -0.199400
     29 CAA         -8.5590     2.4020    -0.2710 c2         1 YSD      -0.297000
     30 CBA         -6.0510     2.1440     0.1850 c6         1 YSD       0.212000
     31 OAG         -5.9500     3.5300    -0.1530 oh         1 YSD      -0.654000
     32 H1           8.2060     3.6370     0.8990 hc         1 YSD       0.034533
     33 H2           7.0240     3.9840     2.1670 hc         1 YSD       0.034533
     34 H3           8.0820     2.5700     2.3200 hc         1 YSD       0.034533
     35 H4           5.6850     2.0610     1.6230 hc         1 YSD       0.041950
     36 H5           5.9400     2.9580     0.1370 hc         1 YSD       0.041950
     37 H6           7.7860     2.1120    -1.5300 hc         1 YSD       0.041950
     38 H7           8.9510     1.7940    -0.2570 hc         1 YSD       0.041950
     39 H8           9.6000     0.4850    -2.1710 hc         1 YSD       0.034533
     40 H9           9.0090    -0.6580    -0.9520 hc         1 YSD       0.034533
     41 H10          7.9910    -0.2260    -2.3490 hc         1 YSD       0.034533
     42 H11          6.6920    -0.1100     1.7380 ho         1 YSD       0.439000
     43 H12          5.4710     0.9090    -1.4250 hc         1 YSD       0.049200
     44 H13          6.1850    -0.6330    -1.0080 hc         1 YSD       0.049200
     45 H14          4.8070    -0.6450     1.1500 hc         1 YSD       0.037200
     46 H15          4.0970     0.8730     0.6320 hc         1 YSD       0.037200
     47 H16          3.3280    -0.3550    -1.5000 hc         1 YSD       0.046700
     48 H17          4.8910    -2.3480    -1.1560 hc         1 YSD       0.033700
     49 H18          3.7810    -2.9250     0.0960 hc         1 YSD       0.033700
     50 H19          3.2470    -2.7360    -1.5970 hc         1 YSD       0.033700
     51 H20          2.2350    -1.1960     1.2850 hc         1 YSD       0.044700
     52 H21          1.8540     1.1430     1.3810 hc         1 YSD       0.039700
     53 H22          1.8110     1.3400    -0.3630 hc         1 YSD       0.039700
     54 H23         -0.5160     1.1970     1.2800 hc         1 YSD       0.044700
     55 H24         -0.4980     0.9780    -0.4700 hc         1 YSD       0.044700
     56 H25         -0.0730    -1.1820     1.7050 hc         1 YSD       0.052700
     57 H26          1.1000    -1.8400    -2.5000 hc         1 YSD       0.034367
     58 H27         -0.5870    -1.4570    -2.1360 hc         1 YSD       0.034367
     59 H28          0.6380    -0.1920    -2.1150 hc         1 YSD       0.034367
     60 H29          1.4490    -3.5900    -0.7520 hc         1 YSD       0.040700
     61 H30          1.0110    -3.3210     0.9230 hc         1 YSD       0.040700
     62 H31         -0.8920    -3.6570    -1.4740 hc         1 YSD       0.040200
     63 H32         -0.6600    -4.7790    -0.1530 hc         1 YSD       0.040200
     64 H33         -2.7740    -3.3770    -0.0150 hc         1 YSD       0.046700
     65 H34         -1.7870    -3.3500     1.4350 hc         1 YSD       0.046700
     66 H35         -2.5770     0.4470     0.2410 ha         1 YSD       0.172000
     67 H36         -4.4170    -2.0440     0.1660 ha         1 YSD       0.170000
     68 H37         -4.0600     1.7040    -0.5600 hc         1 YSD       0.058450
     69 H38         -5.3190     1.4790    -1.7500 hc         1 YSD       0.058450
     70 H39         -6.8920    -0.6570    -1.5960 hc         1 YSD       0.058450
     71 H40         -6.6850    -1.7540    -0.2450 hc         1 YSD       0.058450
     72 H41         -8.6510    -0.1810    -0.0490 h1         1 YSD       0.042200
     73 H42         -8.1310     0.4990     2.1220 ho         1 YSD       0.441500
     74 H44         -9.5610     1.9790    -0.3600 ha         1 YSD       0.167500
     75 H45         -8.4850     3.4730    -0.4580 ha         1 YSD       0.167500
     76 H47         -5.7470     2.0080     1.2340 h1         1 YSD       0.042200
     77 H48         -6.5690     3.9960     0.4480 ho         1 YSD       0.441500
@<TRIPOS>BOND
     1     1     2 1   
     2     1    32 1   
     3     1    33 1   
     4     1    34 1   
     5     2     3 1   
     6     2    35 1   
     7     2    36 1   
     8     3     4 1   
     9     3     6 1   
    10     3     7 1   
    11     4     5 1   
    12     4    37 1   
    13     4    38 1   
    14     5    39 1   
    15     5    40 1   
    16     5    41 1   
    17     6    42 1   
    18     7     8 1   
    19     7    43 1   
    20     7    44 1   
    21     8     9 1   
    22     8    45 1   
    23     8    46 1   
    24     9    10 1   
    25     9    11 1   
    26     9    47 1   
    27    10    48 1   
    28    10    49 1   
    29    10    50 1   
    30    11    12 1   
    31    11    15 1   
    32    11    51 1   
    33    12    13 1   
    34    12    52 1   
    35    12    53 1   
    36    13    14 1   
    37    13    54 1   
    38    13    55 1   
    39    14    15 1   
    40    14    20 1   
    41    14    56 1   
    42    15    16 1   
    43    15    17 1   
    44    16    57 1   
    45    16    58 1   
    46    16    59 1   
    47    17    18 1   
    48    17    60 1   
    49    17    61 1   
    50    18    19 1   
    51    18    62 1   
    52    18    63 1   
    53    19    20 1   
    54    19    64 1   
    55    19    65 1   
    56    20    21 2   
    57    21    22 1   
    58    21    66 1   
    59    22    23 2   
    60    22    67 1   
    61    23    24 1   
    62    23    25 1   
    63    24    30 1   
    64    24    68 1   
    65    24    69 1   
    66    25    26 1   
    67    25    70 1   
    68    25    71 1   
    69    26    27 1   
    70    26    28 1   
    71    26    72 1   
    72    27    73 1   
    73    28    29 2   
    74    28    30 1   
    75    29    74 1   
    76    29    75 1   
    77    30    31 1   
    78    30    76 1   
    79    31    77 1   
@<TRIPOS>SUBSTRUCTURE
     1 YSD         1 TEMP              0 ****  ****    0 ROOT
