@<TRIPOS>MOLECULE
YSD
   77    79     1     0     0
SMALL
abcg2


@<TRIPOS>ATOM
      1 CAB          7.3160     3.2990     1.1640 c3         1 YSD      -0.084600
      2 CAK          6.3110     2.4390     0.4080 c3         1 YSD      -0.084400
      3 CBD          6.7840     1.0200     0.0480 c3         1 YSD       0.190000
      4 CAL          7.9910     1.1000    -0.8970 c3         1 YSD      -0.084400
      5 CAC          8.6190    -0.2300    -1.2990 c3         1 YSD      -0.084600
      6 OAH          7.2300     0.3360     1.2120 oh         1 YSD      -0.659000
      7 CAS          5.6460     0.2350    -0.6330 c3         1 YSD      -0.106400
      8 CAP          4.4110    -0.0330     0.2240 c3         1 YSD      -0.078400
      9 CAY          3.2750    -0.7590    -0.5160 c3         1 YSD      -0.047700
     10 CAD          3.7280    -2.1340    -1.0010 c3         1 YSD      -0.087100
     11 CBC          2.0310    -0.8230     0.3840 c5         1 YSD      -0.054700
     12 CAQ          1.5470     0.5910     0.8030 c5         1 YSD      -0.077400
     13 CAO          0.0150     0.5300     0.9480 c5         1 YSD      -0.071400
     14 CBB         -0.3020    -0.9520     0.8350 c5         1 YSD      -0.034500
     15 CBE          0.7490    -1.4950    -0.1680 c5         1 YSD      -0.035000
     16 CAE          0.4600    -1.0070    -1.5890 c3         1 YSD      -0.079100
     17 CAR          0.7000    -3.0230    -0.0930 c6         1 YSD      -0.063400
     18 CAM         -0.7040    -3.5580    -0.3810 c6         1 YSD      -0.072400
     19 CAN         -1.7800    -2.9170     0.5030 c6         1 YSD      -0.042200
     20 CAX         -1.6870    -1.4150     0.5010 c2         1 YSD      -0.080400
     21 CAJ         -2.6930    -0.5710     0.2220 ce         1 YSD      -0.189000
     22 CAI         -4.0460    -0.9320    -0.1640 ce         1 YSD      -0.162000
     23 CAW         -5.0370    -0.0840    -0.4800 c2         1 YSD      -0.105400
     24 CAU         -4.9330     1.4140    -0.4640 c6         1 YSD      -0.032200
     25 CAT         -6.3890    -0.5860    -0.8960 c6         1 YSD      -0.032200
     26 CAZ         -7.4990     0.0150    -0.0340 c6         1 YSD       0.212000
     27 OAF         -7.3630    -0.5220     1.2680 oh         1 YSD      -0.654000
     28 CAV         -7.3710     1.5180    -0.0290 c2         1 YSD      -0.199400
     29 CAA         -8.3570     2.3040    -0.4460 c2         1 YSD      -0.297000
     30 CBA         -6.0240     2.0240     0.4230 c6         1 YSD       0.212000
     31 OAG         -5.8940     3.4220     0.3650 oh         1 YSD      -0.654000
     32 H1           8.2140     3.5090     0.5820 hc         1 YSD       0.034533
     33 H2           6.8690     4.2590     1.4230 hc         1 YSD       0.034533
     34 H3           7.6280     2.8230     2.0930 hc         1 YSD       0.034533
     35 H4           5.4040     2.3700     1.0170 hc         1 YSD       0.041950
     36 H5           6.0070     2.9460    -0.5120 hc         1 YSD       0.041950
     37 H6           7.6740     1.6370    -1.7950 hc         1 YSD       0.041950
     38 H7           8.7640     1.7180    -0.4340 hc         1 YSD       0.041950
     39 H8           9.4970    -0.0530    -1.9210 hc         1 YSD       0.034533
     40 H9           8.9480    -0.8010    -0.4300 hc         1 YSD       0.034533
     41 H10          7.9400    -0.8590    -1.8750 hc         1 YSD       0.034533
     42 H11          6.5300     0.3660     1.8720 ho         1 YSD       0.439000
     43 H12          5.3450     0.7770    -1.5360 hc         1 YSD       0.049200
     44 H13          6.0540    -0.7180    -0.9750 hc         1 YSD       0.049200
     45 H14          4.6840    -0.6300     1.1040 hc         1 YSD       0.037200
     46 H15          4.0240     0.9130     0.6070 hc         1 YSD       0.037200
     47 H16          3.0190    -0.1530    -1.3960 hc         1 YSD       0.046700
     48 H17          4.6620    -2.0790    -1.5610 hc         1 YSD       0.033700
     49 H18          3.8870    -2.8180    -0.1630 hc         1 YSD       0.033700
     50 H19          2.9990    -2.5920    -1.6670 hc         1 YSD       0.033700
     51 H20          2.3110    -1.3770     1.2910 hc         1 YSD       0.044700
     52 H21          2.0260     0.9080     1.7300 hc         1 YSD       0.039700
     53 H22          1.8270     1.3270     0.0430 hc         1 YSD       0.039700
     54 H23         -0.3350     0.9520     1.8920 hc         1 YSD       0.044700
     55 H24         -0.4660     1.1020     0.1530 hc         1 YSD       0.044700
     56 H25         -0.0410    -1.4130     1.8000 hc         1 YSD       0.052700
     57 H26          1.1330    -1.4780    -2.3070 hc         1 YSD       0.034367
     58 H27         -0.5590    -1.2330    -1.9060 hc         1 YSD       0.034367
     59 H28          0.5900     0.0730    -1.6840 hc         1 YSD       0.034367
     60 H29          1.4020    -3.4870    -0.7870 hc         1 YSD       0.040700
     61 H30          1.0080    -3.3330     0.9130 hc         1 YSD       0.040700
     62 H31         -0.9540    -3.3930    -1.4330 hc         1 YSD       0.040200
     63 H32         -0.7210    -4.6400    -0.2340 hc         1 YSD       0.040200
     64 H33         -2.7640    -3.2740     0.2000 hc         1 YSD       0.046700
     65 H34         -1.6290    -3.2610     1.5330 hc         1 YSD       0.046700
     66 H35         -2.4780     0.4900     0.2800 ha         1 YSD       0.172000
     67 H36         -4.2750    -1.9920    -0.2270 ha         1 YSD       0.170000
     68 H37         -3.9590     1.7600    -0.1190 hc         1 YSD       0.058450
     69 H38         -5.0710     1.7930    -1.4840 hc         1 YSD       0.058450
     70 H39         -6.5880    -0.2900    -1.9330 hc         1 YSD       0.058450
     71 H40         -6.4390    -1.6760    -0.8580 hc         1 YSD       0.058450
     72 H41         -8.4690    -0.2590    -0.4690 h1         1 YSD       0.042200
     73 H42         -8.0620    -0.1520     1.8160 ho         1 YSD       0.441500
     74 H44         -9.2990     1.8860    -0.7770 ha         1 YSD       0.167500
     75 H45         -8.2700     3.3820    -0.4820 ha         1 YSD       0.167500
     76 H47         -5.8510     1.6650     1.4480 h1         1 YSD       0.042200
     77 H48         -6.4510     3.8090     1.0480 ho         1 YSD       0.441500
@<TRIPOS>BOND
     1     1     2 1   
     2     1    32 1   
     3     1    33 1   
     4     1    34 1   
     5     2     3 1   
     6     2    35 1   
     7     2    36 1   
     8     3     4 1   
     9     3     6 1   
    10     3     7 1   
    11     4     5 1   
    12     4    37 1   
    13     4    38 1   
    14     5    39 1   
    15     5    40 1   
    16     5    41 1   
    17     6    42 1   
    18     7     8 1   
    19     7    43 1   
    20     7    44 1   
    21     8     9 1   
    22     8    45 1   
    23     8    46 1   
    24     9    10 1   
    25     9    11 1   
    26     9    47 1   
    27    10    48 1   
    28    10    49 1   
    29    10    50 1   
    30    11    12 1   
    31    11    15 1   
    32    11    51 1   
    33    12    13 1   
    34    12    52 1   
    35    12    53 1   
    36    13    14 1   
    37    13    54 1   
    38    13    55 1   
    39    14    15 1   
    40    14    20 1   
    41    14    56 1   
    42    15    16 1   
    43    15    17 1   
    44    16    57 1   
    45    16    58 1   
    46    16    59 1   
    47    17    18 1   
    48    17    60 1   
    49    17    61 1   
    50    18    19 1   
    51    18    62 1   
    52    18    63 1   
    53    19    20 1   
    54    19    64 1   
    55    19    65 1   
    56    20    21 2   
    57    21    22 1   
    58    21    66 1   
    59    22    23 2   
    60    22    67 1   
    61    23    24 1   
    62    23    25 1   
    63    24    30 1   
    64    24    68 1   
    65    24    69 1   
    66    25    26 1   
    67    25    70 1   
    68    25    71 1   
    69    26    27 1   
    70    26    28 1   
    71    26    72 1   
    72    27    73 1   
    73    28    29 2   
    74    28    30 1   
    75    29    74 1   
    76    29    75 1   
    77    30    31 1   
    78    30    76 1   
    79    31    77 1   
@<TRIPOS>SUBSTRUCTURE
     1 YSD         1 TEMP              0 ****  ****    0 ROOT
