@<TRIPOS>MOLECULE
YSE
   71    73     1     0     0
SMALL
No Charge or Current Charge


@<TRIPOS>ATOM
      1 O2          -7.3540    -2.8070    -1.7940 oh         1 YSE      -0.664000
      2 C23         -6.1630    -2.1610    -1.3340 c3         1 YSE       0.161600
      3 C22         -6.4940    -1.2550    -0.1270 c3         1 YSE      -0.081400
      4 C21         -5.2600    -0.6330     0.6090 c3         1 YSE      -0.055700
      5 C24         -5.7060     0.2550     1.8160 c3         1 YSE      -0.072400
      6 C25         -6.5470    -0.4690     2.8910 c3         1 YSE      -0.091100
      7 C19         -4.2400     0.1100    -0.3480 c3         1 YSE      -0.045700
      8 C20         -4.8920     1.3420    -1.0310 c3         1 YSE      -0.086100
      9 C17         -2.8480     0.4250     0.3250 c5         1 YSE      -0.054700
     10 C16         -2.1630    -0.8570     0.9420 c5         1 YSE      -0.077400
     11 C15         -0.6230    -0.6200     0.8630 c5         1 YSE      -0.071400
     12 C10         -0.5400     0.8910     0.5190 c5         1 YSE      -0.035500
     13 C11         -1.6800     1.0430    -0.5480 c5         1 YSE      -0.037000
     14 C18         -1.4440     0.2510    -1.8830 c3         1 YSE      -0.079100
     15 C12         -1.8120     2.5660    -0.8860 c6         1 YSE      -0.062400
     16 C13         -0.4960     3.1550    -1.4650 c6         1 YSE      -0.071400
     17 C14          0.7370     2.8830    -0.5650 c6         1 YSE      -0.042200
     18 C8           0.7890     1.4390    -0.0480 c2         1 YSE      -0.080400
     19 C7           1.9090     0.6670     0.0430 ce         1 YSE      -0.189000
     20 C6           3.2720     1.0730    -0.3600 ce         1 YSE      -0.161000
     21 C5           4.3620     0.2690    -0.4660 c2         1 YSE      -0.106400
     22 C            5.7260     0.8280    -0.8700 c6         1 YSE      -0.032200
     23 C4           4.3980    -1.2440    -0.2310 c6         1 YSE      -0.032200
     24 C3           5.4680    -1.6140     0.8240 c6         1 YSE       0.211500
     25 O            5.5060    -3.0340     0.9980 oh         1 YSE      -0.653500
     26 C2           6.8490    -1.0600     0.4320 c2         1 YSE      -0.199400
     27 C9           7.9820    -1.7900     0.3540 c2         1 YSE      -0.298000
     28 C1           6.8510     0.4370     0.1240 c6         1 YSE       0.211500
     29 O1           6.7220     1.1580     1.3500 oh         1 YSE      -0.653500
     30 H1          -7.0960    -3.3710    -2.5570 ho         1 YSE       0.441000
     31 H2          -5.4190    -2.9100    -1.0310 h1         1 YSE       0.015700
     32 H3          -5.7320    -1.5580    -2.1430 h1         1 YSE       0.015700
     33 H4          -7.1870    -0.4670    -0.4450 hc         1 YSE       0.053200
     34 H5          -7.0490    -1.8720     0.5880 hc         1 YSE       0.053200
     35 H6          -4.7310    -1.4910     1.0390 hc         1 YSE       0.045700
     36 H7          -4.8240     0.6560     2.3250 hc         1 YSE       0.039700
     37 H8          -6.2740     1.1190     1.4510 hc         1 YSE       0.039700
     38 H9          -6.6870     0.1830     3.7620 hc         1 YSE       0.032033
     39 H10         -7.5420    -0.7300     2.5110 hc         1 YSE       0.032033
     40 H11         -6.0460    -1.3840     3.2270 hc         1 YSE       0.032033
     41 H12         -4.0130    -0.5920    -1.1560 hc         1 YSE       0.044700
     42 H13         -4.8600     2.2210    -0.3750 hc         1 YSE       0.033033
     43 H14         -4.3790     1.5790    -1.9680 hc         1 YSE       0.033033
     44 H15         -5.9370     1.1620    -1.3000 hc         1 YSE       0.033033
     45 H16         -3.0640     1.1330     1.1320 hc         1 YSE       0.046700
     46 H17         -2.4880    -1.0120     1.9780 hc         1 YSE       0.040200
     47 H18         -2.4280    -1.7690     0.3940 hc         1 YSE       0.040200
     48 H19         -0.1220    -0.8580     1.8080 hc         1 YSE       0.044700
     49 H20         -0.1740    -1.2550     0.0910 hc         1 YSE       0.044700
     50 H21         -0.7770     1.4720     1.4200 hc         1 YSE       0.053700
     51 H22         -1.5280    -0.8340    -1.7530 hc         1 YSE       0.033700
     52 H23         -2.1830     0.5310    -2.6420 hc         1 YSE       0.033700
     53 H24         -0.4520     0.4410    -2.3070 hc         1 YSE       0.033700
     54 H25         -2.6100     2.7520    -1.6110 hc         1 YSE       0.040200
     55 H26         -2.0870     3.1240     0.0200 hc         1 YSE       0.040200
     56 H27         -0.3120     2.7450    -2.4670 hc         1 YSE       0.040200
     57 H28         -0.6100     4.2380    -1.6080 hc         1 YSE       0.040200
     58 H29          1.6350     3.1520    -1.1310 hc         1 YSE       0.046700
     59 H30          0.7050     3.5590     0.3000 hc         1 YSE       0.046700
     60 H31          1.8430    -0.3250     0.4770 ha         1 YSE       0.172000
     61 H32          3.4120     2.1320    -0.5690 ha         1 YSE       0.170000
     62 H33          5.9830     0.4410    -1.8650 hc         1 YSE       0.058200
     63 H34          5.6900     1.9210    -0.9740 hc         1 YSE       0.058200
     64 H35          3.4300    -1.6470     0.0800 hc         1 YSE       0.058200
     65 H36          4.6370    -1.7440    -1.1790 hc         1 YSE       0.058200
     66 H37          5.1720    -1.1440     1.7750 h1         1 YSE       0.042200
     67 H38          6.1800    -3.2000     1.6900 ho         1 YSE       0.441500
     68 H39          8.9330    -1.3370     0.0700 ha         1 YSE       0.167500
     69 H40          8.0140    -2.8600     0.5580 ha         1 YSE       0.167500
     70 H41          7.8100     0.7010    -0.3470 h1         1 YSE       0.042200
     71 H42          7.4040     0.7870     1.9500 ho         1 YSE       0.441500
@<TRIPOS>BOND
     1     1     2 1   
     2     1    30 1   
     3     2     3 1   
     4     2    31 1   
     5     2    32 1   
     6     3     4 1   
     7     3    33 1   
     8     3    34 1   
     9     4     5 1   
    10     4     7 1   
    11     4    35 1   
    12     5     6 1   
    13     5    36 1   
    14     5    37 1   
    15     6    38 1   
    16     6    39 1   
    17     6    40 1   
    18     7     8 1   
    19     7     9 1   
    20     7    41 1   
    21     8    42 1   
    22     8    43 1   
    23     8    44 1   
    24     9    10 1   
    25     9    13 1   
    26     9    45 1   
    27    10    11 1   
    28    10    46 1   
    29    10    47 1   
    30    11    12 1   
    31    11    48 1   
    32    11    49 1   
    33    12    13 1   
    34    12    18 1   
    35    12    50 1   
    36    13    14 1   
    37    13    15 1   
    38    14    51 1   
    39    14    52 1   
    40    14    53 1   
    41    15    16 1   
    42    15    54 1   
    43    15    55 1   
    44    16    17 1   
    45    16    56 1   
    46    16    57 1   
    47    17    18 1   
    48    17    58 1   
    49    17    59 1   
    50    18    19 2   
    51    19    20 1   
    52    19    60 1   
    53    20    21 2   
    54    20    61 1   
    55    21    22 1   
    56    21    23 1   
    57    22    28 1   
    58    22    62 1   
    59    22    63 1   
    60    23    24 1   
    61    23    64 1   
    62    23    65 1   
    63    24    25 1   
    64    24    26 1   
    65    24    66 1   
    66    25    67 1   
    67    26    27 2   
    68    26    28 1   
    69    27    68 1   
    70    27    69 1   
    71    28    29 1   
    72    28    70 1   
    73    29    71 1   
@<TRIPOS>SUBSTRUCTURE
     1 YSE         1 TEMP              0 ****  ****    0 ROOT
