@<TRIPOS>MOLECULE
YSE
   71    73     1     0     0
SMALL
abcg2


@<TRIPOS>ATOM
      1 O2          -6.9340    -3.0580    -1.7130 oh         1 YSE      -0.664000
      2 C23         -5.8220    -2.3240    -1.2380 c3         1 YSE       0.161600
      3 C22         -6.3190    -1.2550    -0.2810 c3         1 YSE      -0.081400
      4 C21         -5.2070    -0.5510     0.5070 c3         1 YSE      -0.055700
      5 C24         -5.8130     0.4280     1.5200 c3         1 YSE      -0.072400
      6 C25         -6.5360    -0.2460     2.6800 c3         1 YSE      -0.091100
      7 C19         -4.1520     0.1220    -0.4060 c3         1 YSE      -0.045700
      8 C20         -4.7490     1.3250    -1.1360 c3         1 YSE      -0.086100
      9 C17         -2.8690     0.4480     0.3720 c5         1 YSE      -0.054700
     10 C16         -2.2530    -0.8110     1.0390 c5         1 YSE      -0.077400
     11 C15         -0.7230    -0.6330     1.0270 c5         1 YSE      -0.071400
     12 C10         -0.5380     0.8200     0.6230 c5         1 YSE      -0.035500
     13 C11         -1.6780     1.0720    -0.3980 c5         1 YSE      -0.037000
     14 C18         -1.4160     0.3190    -1.7050 c3         1 YSE      -0.079100
     15 C12         -1.7520     2.5800    -0.6440 c6         1 YSE      -0.062400
     16 C13         -0.4090     3.1460    -1.1080 c6         1 YSE      -0.071400
     17 C14          0.7430     2.7930    -0.1620 c6         1 YSE      -0.042200
     18 C8           0.7870     1.3200     0.1420 c2         1 YSE      -0.080400
     19 C7           1.8650     0.5290     0.0160 ce         1 YSE      -0.189000
     20 C6           3.1810     0.9350    -0.4420 ce         1 YSE      -0.161000
     21 C5           4.2650     0.1550    -0.5710 c2         1 YSE      -0.106400
     22 C            5.5710     0.7180    -1.0530 c6         1 YSE      -0.032200
     23 C4           4.3270    -1.3100    -0.2470 c6         1 YSE      -0.032200
     24 C3           5.4340    -1.5910     0.7770 c6         1 YSE       0.211500
     25 O            5.4710    -2.9770     1.0020 oh         1 YSE      -0.653500
     26 C2           6.7360    -1.0210     0.2680 c2         1 YSE      -0.199400
     27 C9           7.8270    -1.7460     0.0510 c2         1 YSE      -0.298000
     28 C1           6.6880     0.4550    -0.0450 c6         1 YSE       0.211500
     29 O1           6.4090     1.2220     1.1090 oh         1 YSE      -0.653500
     30 H1          -6.6130    -3.7040    -2.3480 ho         1 YSE       0.441000
     31 H2          -5.1090    -2.9760    -0.7120 h1         1 YSE       0.015700
     32 H3          -5.2740    -1.8680    -2.0710 h1         1 YSE       0.015700
     33 H4          -6.9220    -0.5230    -0.8270 hc         1 YSE       0.053200
     34 H5          -6.9950    -1.7380     0.4300 hc         1 YSE       0.053200
     35 H6          -4.6970    -1.3360     1.0770 hc         1 YSE       0.045700
     36 H7          -5.0270     1.0630     1.9360 hc         1 YSE       0.039700
     37 H8          -6.5020     1.1070     1.0050 hc         1 YSE       0.039700
     38 H9          -6.9230     0.4950     3.3810 hc         1 YSE       0.032033
     39 H10         -7.3830    -0.8500     2.3520 hc         1 YSE       0.032033
     40 H11         -5.8590    -0.8990     3.2350 hc         1 YSE       0.032033
     41 H12         -3.8670    -0.6170    -1.1630 hc         1 YSE       0.044700
     42 H13         -4.8540     2.1890    -0.4780 hc         1 YSE       0.033033
     43 H14         -4.1380     1.6330    -1.9830 hc         1 YSE       0.033033
     44 H15         -5.7380     1.0950    -1.5360 hc         1 YSE       0.033033
     45 H16         -3.1180     1.1640     1.1670 hc         1 YSE       0.046700
     46 H17         -2.6280    -0.9350     2.0560 hc         1 YSE       0.040200
     47 H18         -2.5430    -1.7150     0.4970 hc         1 YSE       0.040200
     48 H19         -0.2640    -0.8610     1.9900 hc         1 YSE       0.044700
     49 H20         -0.2650    -1.3030     0.2950 hc         1 YSE       0.044700
     50 H21         -0.8000     1.4340     1.5000 hc         1 YSE       0.053700
     51 H22         -1.4760    -0.7630    -1.5740 hc         1 YSE       0.033700
     52 H23         -2.1450     0.5940    -2.4690 hc         1 YSE       0.033700
     53 H24         -0.4260     0.5370    -2.1080 hc         1 YSE       0.033700
     54 H25         -2.5150     2.8260    -1.3830 hc         1 YSE       0.040200
     55 H26         -2.0490     3.0760     0.2880 hc         1 YSE       0.040200
     56 H27         -0.1780     2.7790    -2.1120 hc         1 YSE       0.040200
     57 H28         -0.4800     4.2330    -1.1930 hc         1 YSE       0.040200
     58 H29          1.6830     3.1590    -0.5760 hc         1 YSE       0.046700
     59 H30          0.5940     3.3320     0.7820 hc         1 YSE       0.046700
     60 H31          1.7440    -0.5150     0.2850 ha         1 YSE       0.172000
     61 H32          3.3080     1.9790    -0.7120 ha         1 YSE       0.170000
     62 H33          5.8600     0.2350    -1.9930 hc         1 YSE       0.058200
     63 H34          5.4930     1.7890    -1.2530 hc         1 YSE       0.058200
     64 H35          3.3800    -1.6900     0.1350 hc         1 YSE       0.058200
     65 H36          4.5590    -1.8710    -1.1610 hc         1 YSE       0.058200
     66 H37          5.1700    -1.0580     1.7020 h1         1 YSE       0.042200
     67 H38          6.0540    -3.1470     1.7500 ho         1 YSE       0.441500
     68 H39          8.7320    -1.2890    -0.3310 ha         1 YSE       0.167500
     69 H40          7.8680    -2.8120     0.2310 ha         1 YSE       0.167500
     70 H41          7.6450     0.7560    -0.4910 h1         1 YSE       0.042200
     71 H42          7.1130     1.0680     1.7470 ho         1 YSE       0.441500
@<TRIPOS>BOND
     1     1     2 1   
     2     1    30 1   
     3     2     3 1   
     4     2    31 1   
     5     2    32 1   
     6     3     4 1   
     7     3    33 1   
     8     3    34 1   
     9     4     5 1   
    10     4     7 1   
    11     4    35 1   
    12     5     6 1   
    13     5    36 1   
    14     5    37 1   
    15     6    38 1   
    16     6    39 1   
    17     6    40 1   
    18     7     8 1   
    19     7     9 1   
    20     7    41 1   
    21     8    42 1   
    22     8    43 1   
    23     8    44 1   
    24     9    10 1   
    25     9    13 1   
    26     9    45 1   
    27    10    11 1   
    28    10    46 1   
    29    10    47 1   
    30    11    12 1   
    31    11    48 1   
    32    11    49 1   
    33    12    13 1   
    34    12    18 1   
    35    12    50 1   
    36    13    14 1   
    37    13    15 1   
    38    14    51 1   
    39    14    52 1   
    40    14    53 1   
    41    15    16 1   
    42    15    54 1   
    43    15    55 1   
    44    16    17 1   
    45    16    56 1   
    46    16    57 1   
    47    17    18 1   
    48    17    58 1   
    49    17    59 1   
    50    18    19 2   
    51    19    20 1   
    52    19    60 1   
    53    20    21 2   
    54    20    61 1   
    55    21    22 1   
    56    21    23 1   
    57    22    28 1   
    58    22    62 1   
    59    22    63 1   
    60    23    24 1   
    61    23    64 1   
    62    23    65 1   
    63    24    25 1   
    64    24    26 1   
    65    24    66 1   
    66    25    67 1   
    67    26    27 2   
    68    26    28 1   
    69    27    68 1   
    70    27    69 1   
    71    28    29 1   
    72    28    70 1   
    73    29    71 1   
@<TRIPOS>SUBSTRUCTURE
     1 YSE         1 TEMP              0 ****  ****    0 ROOT
