@<TRIPOS>MOLECULE
YSG
   51    54     1     0     0
SMALL
No Charge or Current Charge


@<TRIPOS>ATOM
      1 N1         -24.4640    -5.5870   -22.4630 ns         1 YSG      -0.470500
      2 C2         -21.5430    -4.0840   -27.7660 cc         1 YSG      -0.166400
      3 N3         -19.9540    -4.4580   -25.9430 n          1 YSG      -0.189200
      4 C4         -22.7080    -2.6670   -29.4510 ca         1 YSG      -0.142000
      5 C5         -23.0480    -2.3780   -30.7810 ca         1 YSG       0.153000
      6 C6         -22.5830    -3.1940   -31.8220 ca         1 YSG      -0.141000
      7 C8         -20.4990    -6.2240   -32.4210 c3         1 YSG       0.162600
      8 C1         -20.1380    -4.1520   -27.3140 c          1 YSG       0.563200
      9 C10        -19.4040    -5.8960   -34.7440 c3         1 YSG      -0.087100
     10 C11        -21.4330    -4.5960   -30.2000 ca         1 YSG      -0.172000
     11 C12        -22.6190    -4.3370   -26.9380 cd         1 YSG      -0.072000
     12 C13        -22.3830    -4.6670   -25.5470 cd         1 YSG      -0.142000
     13 C14        -23.4610    -4.9500   -24.5820 cd         1 YSG      -0.211200
     14 C15        -23.3010    -5.4070   -23.1480 c          1 YSG       0.592200
     15 C16        -24.7620    -4.7760   -25.0440 cc         1 YSG       0.005600
     16 C17        -25.7320    -5.4200   -22.8920 c          1 YSG       0.616000
     17 C18        -21.0620    -4.6950   -25.1140 cc         1 YSG       0.018600
     18 C19        -18.6180    -4.6650   -25.4010 ca         1 YSG      -0.042400
     19 C20        -18.3680    -5.6420   -24.4090 ca         1 YSG      -0.058000
     20 C21        -17.0850    -5.7260   -23.8440 ca         1 YSG      -0.160000
     21 C22        -16.0930    -4.8200   -24.2470 ca         1 YSG       0.348900
     22 C23        -17.5590    -3.7690   -25.7030 ca         1 YSG       0.368900
     23 C3         -21.8970    -3.7780   -29.1520 ca         1 YSG       0.014200
     24 C7         -21.7740    -4.3050   -31.5390 ca         1 YSG       0.158100
     25 C9         -20.2070    -6.8280   -33.8110 c3         1 YSG      -0.075400
     26 N2         -25.8260    -5.0180   -24.1850 ns         1 YSG      -0.514600
     27 N4         -16.3210    -3.8450   -25.1540 nb         1 YSG      -0.655000
     28 O2         -21.3430    -5.0730   -32.6000 os         1 YSG      -0.348100
     29 O3         -22.2450    -5.6340   -22.5830 o          1 YSG      -0.524000
     30 O4         -26.7040    -5.6130   -22.1890 o          1 YSG      -0.542000
     31 Cl1        -24.0590    -0.9870   -31.1440 cl         1 YSG      -0.204000
     32 H12        -24.3650    -5.8910   -21.5080 hn         1 YSG       0.346500
     33 H1         -23.0690    -2.0240   -28.6530 ha         1 YSG       0.129000
     34 H2         -22.8480    -2.9660   -32.8500 ha         1 YSG       0.143000
     35 H3         -21.0010    -6.9770   -31.7990 h1         1 YSG       0.039700
     36 H4         -19.5540    -5.9450   -31.9380 h1         1 YSG       0.039700
     37 H8         -19.2010    -6.3950   -35.6990 hc         1 YSG       0.038033
     38 H7         -19.9620    -4.9750   -34.9520 hc         1 YSG       0.038033
     39 H9         -18.4450    -5.6240   -34.2880 hc         1 YSG       0.038033
     40 H10        -20.8110    -5.4520   -29.9550 ha         1 YSG       0.132000
     41 H11        -23.6110    -4.3020   -27.3720 ha         1 YSG       0.187000
     42 H13        -25.0990    -4.4440   -26.0190 h4         1 YSG       0.211000
     43 H15        -20.7440    -4.8470   -24.0960 h4         1 YSG       0.220000
     44 H16        -19.1340    -6.3520   -24.1030 ha         1 YSG       0.128000
     45 H17        -16.8550    -6.4840   -23.1000 ha         1 YSG       0.129000
     46 H18        -15.0910    -4.8650   -23.8220 h4         1 YSG       0.025100
     47 H19        -17.7090    -2.9360   -26.3880 h4         1 YSG       0.037100
     48 H5         -21.1540    -7.1000   -34.2930 hc         1 YSG       0.048700
     49 H6         -19.6450    -7.7600   -33.6750 hc         1 YSG       0.048700
     50 H14        -26.7820    -4.8920   -24.5070 hn         1 YSG       0.466000
     51 O1         -19.1980    -3.9780   -28.0810 o          1 YSG      -0.531000
@<TRIPOS>BOND
     1     1    14 1   
     2     1    16 1   
     3     1    32 1   
     4     2     8 1   
     5     2    11 2   
     6     2    23 1   
     7     3     8 1   
     8     3    17 1   
     9     3    18 1   
    10     4     5 ar  
    11     4    23 ar  
    12     4    33 1   
    13     5     6 ar  
    14     5    31 1   
    15     6    24 ar  
    16     6    34 1   
    17     7    25 1   
    18     7    28 1   
    19     7    35 1   
    20     7    36 1   
    21     8    51 2   
    22     9    25 1   
    23     9    37 1   
    24     9    38 1   
    25     9    39 1   
    26    10    23 ar  
    27    10    24 ar  
    28    10    40 1   
    29    11    12 1   
    30    11    41 1   
    31    12    13 1   
    32    12    17 2   
    33    13    14 1   
    34    13    15 2   
    35    14    29 2   
    36    15    26 1   
    37    15    42 1   
    38    16    26 1   
    39    16    30 2   
    40    17    43 1   
    41    18    19 ar  
    42    18    22 ar  
    43    19    20 ar  
    44    19    44 1   
    45    20    21 ar  
    46    20    45 1   
    47    21    27 ar  
    48    21    46 1   
    49    22    27 ar  
    50    22    47 1   
    51    24    28 1   
    52    25    48 1   
    53    25    49 1   
    54    26    50 1   
@<TRIPOS>SUBSTRUCTURE
     1 YSG         1 TEMP              0 ****  ****    0 ROOT
