@<TRIPOS>MOLECULE
YSG
   51    54     1     0     0
SMALL
bcc


@<TRIPOS>ATOM
      1 N1         -24.4770    -4.0340   -22.3330 ns         1 YSG      -0.604500
      2 C2         -21.7330    -4.3450   -27.7520 cc         1 YSG      -0.166400
      3 N3         -20.1700    -4.8130   -26.0040 n          1 YSG      -0.256200
      4 C4         -22.9190    -2.9980   -29.4560 ca         1 YSG      -0.160000
      5 C5         -23.2200    -2.7300   -30.7820 ca         1 YSG       0.061400
      6 C6         -22.6620    -3.4450   -31.8210 ca         1 YSG      -0.159000
      7 C8         -20.2470    -6.1060   -32.3750 c3         1 YSG       0.139400
      8 C1         -20.3530    -4.5670   -27.3650 c          1 YSG       0.705700
      9 C10        -19.0430    -5.3970   -34.4970 c3         1 YSG      -0.087100
     10 C11        -21.4680    -4.7780   -30.1980 ca         1 YSG      -0.190000
     11 C12        -22.7190    -4.3710   -26.8090 cd         1 YSG      -0.022000
     12 C13        -22.4630    -4.6240   -25.4380 cd         1 YSG      -0.142000
     13 C14        -23.5400    -4.6540   -24.4420 cd         1 YSG      -0.211200
     14 C15        -23.3840    -3.9440   -23.1780 c          1 YSG       0.734700
     15 C16        -24.7060    -5.2950   -24.6670 cc         1 YSG       0.055600
     16 C17        -25.6630    -4.6900   -22.5490 c          1 YSG       0.825500
     17 C18        -21.1680    -4.8440   -25.0870 cc         1 YSG       0.068600
     18 C19        -18.8350    -5.0420   -25.5530 ca         1 YSG      -0.107700
     19 C20        -18.3470    -6.3290   -25.4140 ca         1 YSG      -0.076000
     20 C21        -17.0540    -6.4860   -24.9430 ca         1 YSG      -0.243300
     21 C22        -16.3160    -5.3510   -24.6420 ca         1 YSG       0.414200
     22 C23        -18.0250    -3.9670   -25.2240 ca         1 YSG       0.434200
     23 C3         -22.0370    -4.0340   -29.1630 ca         1 YSG       0.014200
     24 C7         -21.7730    -4.4790   -31.5220 ca         1 YSG       0.158100
     25 C9         -19.7150    -6.5270   -33.7280 c3         1 YSG      -0.075400
     26 N2         -25.7250    -5.3060   -23.7710 ns         1 YSG      -0.468100
     27 N4         -16.7870    -4.1160   -24.7770 nb         1 YSG      -0.655000
     28 O2         -21.2610    -5.1290   -32.5780 os         1 YSG      -0.324900
     29 O3         -22.4020    -3.3100   -22.8450 o          1 YSG      -0.599500
     30 O4         -26.5620    -4.7200   -21.7390 o          1 YSG      -0.617500
     31 CL1        -24.3140    -1.4350   -31.1490 cl         1 YSG      -0.112400
     32 H12        -24.3970    -3.5570   -21.4420 hn         1 YSG       0.346500
     33 H1         -23.3460    -2.3950   -28.6660 ha         1 YSG       0.147000
     34 H2         -22.8950    -3.2130   -32.8520 ha         1 YSG       0.161000
     35 H3         -20.6550    -6.9680   -31.8370 h1         1 YSG       0.039700
     36 H4         -19.4360    -5.6880   -31.7670 h1         1 YSG       0.039700
     37 H8         -18.6120    -5.7650   -35.4280 hc         1 YSG       0.038033
     38 H7         -19.7470    -4.6050   -34.7510 hc         1 YSG       0.038033
     39 H9         -18.2360    -4.9520   -33.9120 hc         1 YSG       0.038033
     40 H10        -20.7980    -5.5900   -29.9590 ha         1 YSG       0.150000
     41 H11        -23.7420    -4.1910   -27.1180 ha         1 YSG       0.137000
     42 H13        -24.8940    -5.8470   -25.5780 h4         1 YSG       0.161000
     43 H15        -20.8630    -5.0660   -24.0750 h4         1 YSG       0.170000
     44 H16        -18.9640    -7.1830   -25.6640 ha         1 YSG       0.146000
     45 H17        -16.6240    -7.4690   -24.8110 ha         1 YSG       0.147000
     46 H18        -15.3010    -5.4430   -24.2720 h4         1 YSG       0.025100
     47 H19        -18.4000    -2.9530   -25.3250 h4         1 YSG       0.037100
     48 H5         -20.5220    -6.9660   -34.3200 hc         1 YSG       0.048700
     49 H6         -18.9960    -7.3300   -33.5480 hc         1 YSG       0.048700
     50 H14        -26.5730    -5.8100   -23.9930 hn         1 YSG       0.352500
     51 O1         -19.3850    -4.5400   -28.1110 o          1 YSG      -0.606500
@<TRIPOS>BOND
     1     1    14 1   
     2     1    16 1   
     3     1    32 1   
     4     2     8 1   
     5     2    11 2   
     6     2    23 1   
     7     3     8 1   
     8     3    17 1   
     9     3    18 1   
    10     4     5 ar  
    11     4    23 ar  
    12     4    33 1   
    13     5     6 ar  
    14     5    31 1   
    15     6    24 ar  
    16     6    34 1   
    17     7    25 1   
    18     7    28 1   
    19     7    35 1   
    20     7    36 1   
    21     8    51 2   
    22     9    25 1   
    23     9    37 1   
    24     9    38 1   
    25     9    39 1   
    26    10    23 ar  
    27    10    24 ar  
    28    10    40 1   
    29    11    12 1   
    30    11    41 1   
    31    12    13 1   
    32    12    17 2   
    33    13    14 1   
    34    13    15 2   
    35    14    29 2   
    36    15    26 1   
    37    15    42 1   
    38    16    26 1   
    39    16    30 2   
    40    17    43 1   
    41    18    19 ar  
    42    18    22 ar  
    43    19    20 ar  
    44    19    44 1   
    45    20    21 ar  
    46    20    45 1   
    47    21    27 ar  
    48    21    46 1   
    49    22    27 ar  
    50    22    47 1   
    51    24    28 1   
    52    25    48 1   
    53    25    49 1   
    54    26    50 1   
@<TRIPOS>SUBSTRUCTURE
     1 YSG         1 TEMP              0 ****  ****    0 ROOT
