@<TRIPOS>MOLECULE
YSH
   38    39     1     0     0
SMALL
bcc


@<TRIPOS>ATOM
      1 C1           0.6180    -0.1690    -3.3920 cc         1 YSH      -0.131300
      2 N2          -0.2910     0.2120    -2.4660 na         1 YSH       0.137300
      3 N3          -1.4170     0.6720    -3.0240 nc         1 YSH      -0.584800
      4 C4          -1.2170     0.5850    -4.3220 cd         1 YSH       0.345200
      5 C5           0.0560     0.0590    -4.6250 cd         1 YSH      -0.276900
      6 C6          -0.1680     0.1480    -1.0680 ca         1 YSH       0.021800
      7 C7          -1.2980     0.0070    -0.2790 ca         1 YSH      -0.059000
      8 C8          -1.1650    -0.0570     1.1030 ca         1 YSH      -0.059000
      9 C9           0.0950     0.0060     1.7200 ca         1 YSH       0.153100
     10 C10          1.2190     0.1490     0.9120 ca         1 YSH      -0.213000
     11 C11          1.0820     0.2290    -0.4640 ca         1 YSH      -0.098000
     12 C12         -2.3230    -0.1890     1.9210 cg         1 YSH       0.268800
     13 N13         -3.2680    -0.2880     2.5720 n1         1 YSH      -0.400800
     14 O14          0.1040    -0.0760     3.0470 os         1 YSH      -0.318900
     15 C15          1.3230     0.1140     3.7550 c3         1 YSH       0.149400
     16 C16          1.0460     0.0410     5.2520 c3         1 YSH      -0.046000
     17 C17          2.3770     0.3100     5.9580 c3         1 YSH      -0.083433
     18 C18          0.5410    -1.3510     5.6330 c3         1 YSH      -0.083433
     19 C19          0.0260     1.1040     5.6620 c3         1 YSH      -0.083433
     20 C20          0.6630    -0.2100    -5.9680 c          1 YSH       0.949200
     21 O21         -0.0440     0.0630    -6.9570 o          1 YSH      -0.828300
     22 O22          1.8170    -0.6840    -5.9710 o          1 YSH      -0.828300
     23 H1           1.5710    -0.5900    -3.1190 h4         1 YSH       0.172000
     24 H4          -1.9860     0.9020    -5.0100 h4         1 YSH       0.039100
     25 H7          -2.2800    -0.0540    -0.7270 ha         1 YSH       0.172000
     26 H10          2.2100     0.2140     1.3390 ha         1 YSH       0.134000
     27 H11          1.9710     0.3670    -1.0640 ha         1 YSH       0.150000
     28 H151         1.7500     1.0900     3.4940 h1         1 YSH       0.036200
     29 H152         2.0460    -0.6600     3.4710 h1         1 YSH       0.036200
     30 H171         2.2480     0.2550     7.0400 hc         1 YSH       0.036811
     31 H172         3.1360    -0.4230     5.6790 hc         1 YSH       0.036811
     32 H173         2.7660     1.3030     5.7210 hc         1 YSH       0.036811
     33 H181         1.2700    -2.1200     5.3680 hc         1 YSH       0.036811
     34 H182         0.3730    -1.4130     6.7100 hc         1 YSH       0.036811
     35 H183        -0.4000    -1.5950     5.1400 hc         1 YSH       0.036811
     36 H191         0.3510     2.1030     5.3610 hc         1 YSH       0.036811
     37 H192        -0.9540     0.9210     5.2200 hc         1 YSH       0.036811
     38 H193        -0.0970     1.1090     6.7460 hc         1 YSH       0.036811
@<TRIPOS>BOND
     1     1     2 1   
     2     1     5 2   
     3     1    23 1   
     4     2     3 1   
     5     2     6 1   
     6     3     4 2   
     7     4     5 1   
     8     4    24 1   
     9     5    20 1   
    10     6     7 ar  
    11     6    11 ar  
    12     7     8 ar  
    13     7    25 1   
    14     8     9 ar  
    15     8    12 1   
    16     9    10 ar  
    17     9    14 1   
    18    10    11 ar  
    19    10    26 1   
    20    11    27 1   
    21    12    13 3   
    22    14    15 1   
    23    15    16 1   
    24    15    28 1   
    25    15    29 1   
    26    16    17 1   
    27    16    18 1   
    28    16    19 1   
    29    17    30 1   
    30    17    31 1   
    31    17    32 1   
    32    18    33 1   
    33    18    34 1   
    34    18    35 1   
    35    19    36 1   
    36    19    37 1   
    37    19    38 1   
    38    20    21 1   
    39    20    22 1   
@<TRIPOS>SUBSTRUCTURE
     1 YSH         1 TEMP              0 ****  ****    0 ROOT
