@<TRIPOS>MOLECULE
YSH
   38    39     1     0     0
SMALL
No Charge or Current Charge


@<TRIPOS>ATOM
      1 C1           0.5880    -0.3170    -3.4070 cc         1 YSH      -0.164000
      2 N2          -0.3450     0.2230    -2.5340 na         1 YSH       0.188000
      3 N3          -1.4060     0.8800    -3.1160 nc         1 YSH      -0.584800
      4 C4          -1.1300     0.7310    -4.4010 cd         1 YSH       0.279900
      5 C5           0.0650     0.0140    -4.6320 cd         1 YSH      -0.211600
      6 C6          -0.2220     0.1720    -1.1390 ca         1 YSH       0.021800
      7 C7          -1.3510    -0.0720    -0.3310 ca         1 YSH      -0.041000
      8 C8          -1.2330    -0.1270     1.0720 ca         1 YSH      -0.059000
      9 C9           0.0240     0.0640     1.6830 ca         1 YSH       0.153100
     10 C10          1.1560     0.3100     0.8750 ca         1 YSH      -0.195000
     11 C11          1.0320     0.3640    -0.5240 ca         1 YSH      -0.080000
     12 C12         -2.4030    -0.3800     1.8670 cg         1 YSH       0.358000
     13 N13         -3.3650    -0.5870     2.4980 n1         1 YSH      -0.490000
     14 O14          0.1110     0.0040     3.0620 os         1 YSH      -0.342100
     15 C15          1.3520     0.1870     3.7690 c3         1 YSH       0.172600
     16 C16          1.0950     0.0570     5.3010 c3         1 YSH      -0.046000
     17 C17          2.4400     0.2570     6.0470 c3         1 YSH      -0.083433
     18 C18          0.5360    -1.3520     5.6390 c3         1 YSH      -0.083433
     19 C19          0.0900     1.1420     5.7750 c3         1 YSH      -0.083433
     20 C20          0.6570    -0.3240    -5.9440 c          1 YSH       0.738600
     21 O21          0.0730     0.0420    -6.9530 o          1 YSH      -0.723000
     22 O22          1.7050    -0.9540    -5.9710 o          1 YSH      -0.723000
     23 H1           1.4750    -0.8590    -3.1040 h4         1 YSH       0.154000
     24 H4          -1.8060     1.1500    -5.1370 h4         1 YSH       0.039100
     25 H7          -2.3230    -0.2240    -0.7980 ha         1 YSH       0.154000
     26 H10          2.1390     0.4650     1.3120 ha         1 YSH       0.116000
     27 H11          1.9130     0.5640    -1.1300 ha         1 YSH       0.132000
     28 H151         1.7710     1.1790     3.5540 h1         1 YSH       0.036200
     29 H152         2.0840    -0.5700     3.4580 h1         1 YSH       0.036200
     30 H171         2.3040     0.1730     7.1330 hc         1 YSH       0.036811
     31 H172         3.1750    -0.4980     5.7400 hc         1 YSH       0.036811
     32 H173         2.8630     1.2460     5.8360 hc         1 YSH       0.036811
     33 H181         1.2210    -2.1370     5.2960 hc         1 YSH       0.036811
     34 H182         0.4000    -1.4700     6.7210 hc         1 YSH       0.036811
     35 H183        -0.4370    -1.5200     5.1610 hc         1 YSH       0.036811
     36 H191         0.4550     2.1470     5.5310 hc         1 YSH       0.036811
     37 H192        -0.8900     1.0130     5.3000 hc         1 YSH       0.036811
     38 H193        -0.0570     1.0910     6.8610 hc         1 YSH       0.036811
@<TRIPOS>BOND
     1     1     2 1   
     2     1     5 2   
     3     1    23 1   
     4     2     3 1   
     5     2     6 1   
     6     3     4 2   
     7     4     5 1   
     8     4    24 1   
     9     5    20 1   
    10     6     7 ar  
    11     6    11 ar  
    12     7     8 ar  
    13     7    25 1   
    14     8     9 ar  
    15     8    12 1   
    16     9    10 ar  
    17     9    14 1   
    18    10    11 ar  
    19    10    26 1   
    20    11    27 1   
    21    12    13 3   
    22    14    15 1   
    23    15    16 1   
    24    15    28 1   
    25    15    29 1   
    26    16    17 1   
    27    16    18 1   
    28    16    19 1   
    29    17    30 1   
    30    17    31 1   
    31    17    32 1   
    32    18    33 1   
    33    18    34 1   
    34    18    35 1   
    35    19    36 1   
    36    19    37 1   
    37    19    38 1   
    38    20    21 1   
    39    20    22 1   
@<TRIPOS>SUBSTRUCTURE
     1 YSH         1 TEMP              0 ****  ****    0 ROOT
