@<TRIPOS>MOLECULE
YSI
   52    55     1     0     0
SMALL
abcg2


@<TRIPOS>ATOM
      1 C10        -13.4970   -17.1480    23.3980 cc         1 YSI      -0.284500
      2 C15        -10.2870   -19.9520    24.7420 c5         1 YSI      -0.087700
      3 C14         -9.1140   -17.0950    22.4740 c1         1 YSI       0.295900
      4 C13         -9.1840   -18.4350    23.0360 c3         1 YSI      -0.025300
      5 C12        -10.2360   -18.5430    24.1550 c3         1 YSI       0.120300
      6 C11        -13.2860   -18.1760    22.4410 cc         1 YSI       0.298900
      7 C8         -18.2920   -16.4390    19.1680 cc         1 YSI      -0.231000
      8 C9         -14.6860   -16.3060    23.4830 ca         1 YSI       0.275500
      9 N1         -17.0190   -14.8480    23.4330 nb         1 YSI      -0.245000
     10 C2         -14.9990   -15.4870    24.5820 ca         1 YSI      -0.243300
     11 C3         -16.2000   -14.7880    24.4740 ca         1 YSI       0.149900
     12 C4         -16.6220   -15.6570    22.4300 ca         1 YSI       0.388900
     13 C5         -17.3250   -16.3960    20.1620 cd         1 YSI       0.197000
     14 C6         -16.2530   -17.1580    19.6500 cd         1 YSI       0.246900
     15 N2         -17.4710   -15.7060    21.3620 nu         1 YSI      -0.906900
     16 N3         -16.5470   -17.6260    18.4320 nc         1 YSI      -0.518800
     17 N4         -17.7800   -17.1810    18.1570 na         1 YSI       0.126800
     18 N5         -15.5060   -16.3810    22.4170 nb         1 YSI      -0.245000
     19 N6         -12.1130   -18.7660    22.6050 nd         1 YSI      -0.533800
     20 N7         -11.5410   -18.1280    23.6530 na         1 YSI       0.109800
     21 N8          -9.0810   -16.0280    22.0440 n1         1 YSI      -0.447000
     22 C16        -11.3730   -20.1350    25.8100 c5         1 YSI      -0.075400
     23 C17        -10.9300   -21.4070    26.5330 c5         1 YSI      -0.078900
     24 C18         -9.4020   -21.2530    26.6520 c5         1 YSI      -0.078900
     25 C19         -8.9760   -20.3650    25.4530 c5         1 YSI      -0.075400
     26 C20        -12.3330   -17.1650    24.1600 cd         1 YSI      -0.116000
     27 H1         -10.4870   -20.6490    23.9240 hc         1 YSI       0.076700
     28 H2          -9.4210   -19.1360    22.2340 hc         1 YSI       0.089200
     29 H3          -8.2020   -18.6980    23.4310 hc         1 YSI       0.089200
     30 H4          -9.9890   -17.8350    24.9470 h1         1 YSI       0.064700
     31 H5         -13.9550   -18.4970    21.6600 h4         1 YSI       0.055100
     32 H6         -19.2730   -15.9970    19.1160 h4         1 YSI       0.153000
     33 H7         -13.2160   -14.8340    25.6140 hc         1 YSI       0.038367
     34 H8         -14.6970   -14.7540    26.5620 hc         1 YSI       0.038367
     35 H9         -13.9220   -16.3120    26.2610 hc         1 YSI       0.038367
     36 H10        -16.5120   -14.1450    25.2930 h4         1 YSI       0.018100
     37 H11        -15.3080   -17.3760    20.1100 h4         1 YSI       0.060100
     38 H12        -17.7610   -18.1520    16.3400 h1         1 YSI       0.056700
     39 H13        -19.3740   -17.9950    17.0700 h1         1 YSI       0.056700
     40 H14        -18.5950   -16.5830    16.3200 h1         1 YSI       0.056700
     41 H15        -18.2980   -15.1400    21.4630 hn         1 YSI       0.512000
     42 H16        -11.3570   -19.2840    26.5000 hc         1 YSI       0.045950
     43 H17        -12.3740   -20.2020    25.3840 hc         1 YSI       0.045950
     44 H18        -11.4170   -21.5410    27.5000 hc         1 YSI       0.046700
     45 H19        -11.1730   -22.2780    25.9180 hc         1 YSI       0.046700
     46 H20         -8.8900   -22.2160    26.6520 hc         1 YSI       0.046700
     47 H21         -9.1500   -20.7560    27.5910 hc         1 YSI       0.046700
     48 H22         -8.3050   -20.8880    24.7710 hc         1 YSI       0.045950
     49 H23         -8.4440   -19.4780    25.8070 hc         1 YSI       0.045950
     50 H24        -12.0020   -16.5720    24.9920 h4         1 YSI       0.157000
     51 C1         -14.1610   -15.3430    25.8170 c3         1 YSI      -0.022800
     52 C7         -18.4230   -17.4930    16.8950 c3         1 YSI       0.076900
@<TRIPOS>BOND
     1     1     6 1   
     2     1     8 1   
     3     1    26 2   
     4     2     5 1   
     5     2    22 1   
     6     2    25 1   
     7     2    27 1   
     8     3     4 1   
     9     3    21 3   
    10     4     5 1   
    11     4    28 1   
    12     4    29 1   
    13     5    20 1   
    14     5    30 1   
    15     6    19 2   
    16     6    31 1   
    17     7    13 2   
    18     7    17 1   
    19     7    32 1   
    20     8    10 ar  
    21     8    18 ar  
    22     9    11 ar  
    23     9    12 ar  
    24    10    11 ar  
    25    10    51 1   
    26    11    36 1   
    27    12    15 1   
    28    12    18 ar  
    29    13    14 1   
    30    13    15 1   
    31    14    16 2   
    32    14    37 1   
    33    15    41 1   
    34    16    17 1   
    35    17    52 1   
    36    19    20 1   
    37    20    26 1   
    38    22    23 1   
    39    22    42 1   
    40    22    43 1   
    41    23    24 1   
    42    23    44 1   
    43    23    45 1   
    44    24    25 1   
    45    24    46 1   
    46    24    47 1   
    47    25    48 1   
    48    25    49 1   
    49    26    50 1   
    50    33    51 1   
    51    34    51 1   
    52    35    51 1   
    53    38    52 1   
    54    39    52 1   
    55    40    52 1   
@<TRIPOS>SUBSTRUCTURE
     1 YSI         1 TEMP              0 ****  ****    0 ROOT
