@<TRIPOS>MOLECULE
YSI
   52    55     1     0     0
SMALL
No Charge or Current Charge


@<TRIPOS>ATOM
      1 C10        -13.7370   -17.6090    23.4490 cc         1 YSI      -0.284500
      2 C15        -10.1670   -19.8650    24.9970 c5         1 YSI      -0.087700
      3 C14         -9.4320   -17.6670    21.8500 c1         1 YSI       0.295900
      4 C13         -9.3930   -18.8330    22.7390 c3         1 YSI      -0.025300
      5 C12        -10.3150   -18.6920    23.9820 c3         1 YSI       0.120300
      6 C11        -13.6050   -18.7750    22.6820 cc         1 YSI       0.298900
      7 C8         -18.1920   -15.9180    18.9490 cc         1 YSI      -0.231000
      8 C9         -14.8600   -16.6720    23.5040 ca         1 YSI       0.275500
      9 N1         -16.9400   -14.8520    23.3430 nb         1 YSI      -0.245000
     10 C2         -15.1500   -15.8400    24.6180 ca         1 YSI      -0.243300
     11 C3         -16.2210   -14.9370    24.4770 ca         1 YSI       0.149900
     12 C4         -16.5830   -15.6770    22.3490 ca         1 YSI       0.388900
     13 C5         -17.3240   -16.1870    19.9590 cd         1 YSI       0.197000
     14 C6         -16.4360   -17.1970    19.4920 cd         1 YSI       0.246900
     15 N2         -17.3460   -15.5620    21.1930 nu         1 YSI      -0.906900
     16 N3         -16.7050   -17.5700    18.2510 nc         1 YSI      -0.518800
     17 N4         -17.7880   -16.7750    17.9260 na         1 YSI       0.126800
     18 N5         -15.5840   -16.5720    22.3710 nb         1 YSI      -0.245000
     19 N6         -12.4150   -19.3330    22.7670 nd         1 YSI      -0.533800
     20 N7         -11.7290   -18.4540    23.6020 na         1 YSI       0.109800
     21 N8          -9.4410   -16.7280    21.1600 n1         1 YSI      -0.447000
     22 C16        -11.0060   -19.7040    26.2950 c5         1 YSI      -0.075400
     23 C17        -10.5200   -20.9130    27.1380 c5         1 YSI      -0.078900
     24 C18         -9.0120   -21.0740    26.7600 c5         1 YSI      -0.078900
     25 C19         -8.7610   -20.0200    25.6420 c5         1 YSI      -0.075400
     26 C20        -12.5140   -17.3670    24.0040 cd         1 YSI      -0.116000
     27 H1         -10.4540   -20.7830    24.4660 hc         1 YSI       0.076700
     28 H2          -9.6720   -19.7240    22.1650 hc         1 YSI       0.089200
     29 H3          -8.3540   -18.9710    23.0560 hc         1 YSI       0.089200
     30 H4          -9.9870   -17.7880    24.5130 h1         1 YSI       0.064700
     31 H5         -14.3570   -19.2390    22.0560 h4         1 YSI       0.055100
     32 H6         -19.0210   -15.2290    18.8650 h4         1 YSI       0.153000
     33 H7         -13.5190   -15.2930    25.9530 hc         1 YSI       0.038367
     34 H8         -15.0560   -15.5660    26.7760 hc         1 YSI       0.038367
     35 H9         -14.1270   -16.9460    26.2000 hc         1 YSI       0.038367
     36 H10        -16.5160   -14.2740    25.2890 h4         1 YSI       0.018100
     37 H11        -15.6110   -17.6670    20.0110 h4         1 YSI       0.060100
     38 H12        -17.6610   -16.6440    15.8260 h1         1 YSI       0.056700
     39 H13        -18.7650   -17.9110    16.4430 h1         1 YSI       0.056700
     40 H14        -19.2470   -16.1900    16.5170 h1         1 YSI       0.056700
     41 H15        -18.0820   -14.8590    21.2790 hn         1 YSI       0.512000
     42 H16        -10.7980   -18.7520    26.7990 hc         1 YSI       0.045950
     43 H17        -12.0860   -19.7440    26.1100 hc         1 YSI       0.045950
     44 H18        -10.6630   -20.7450    28.2110 hc         1 YSI       0.046700
     45 H19        -11.0810   -21.8190    26.8800 hc         1 YSI       0.046700
     46 H20         -8.8120   -22.0890    26.3980 hc         1 YSI       0.046700
     47 H21         -8.3530   -20.9090    27.6200 hc         1 YSI       0.046700
     48 H22         -8.0010   -20.3620    24.9310 hc         1 YSI       0.045950
     49 H23         -8.4060   -19.0720    26.0640 hc         1 YSI       0.045950
     50 H24        -12.1310   -16.5510    24.6040 h4         1 YSI       0.157000
     51 C1         -14.4190   -15.9180    25.9560 c3         1 YSI      -0.022800
     52 C7         -18.4040   -16.8870    16.5950 c3         1 YSI       0.076900
@<TRIPOS>BOND
     1     1     6 1   
     2     1     8 1   
     3     1    26 2   
     4     2     5 1   
     5     2    22 1   
     6     2    25 1   
     7     2    27 1   
     8     3     4 1   
     9     3    21 3   
    10     4     5 1   
    11     4    28 1   
    12     4    29 1   
    13     5    20 1   
    14     5    30 1   
    15     6    19 2   
    16     6    31 1   
    17     7    13 2   
    18     7    17 1   
    19     7    32 1   
    20     8    10 ar  
    21     8    18 ar  
    22     9    11 ar  
    23     9    12 ar  
    24    10    11 ar  
    25    10    51 1   
    26    11    36 1   
    27    12    15 1   
    28    12    18 ar  
    29    13    14 1   
    30    13    15 1   
    31    14    16 2   
    32    14    37 1   
    33    15    41 1   
    34    16    17 1   
    35    17    52 1   
    36    19    20 1   
    37    20    26 1   
    38    22    23 1   
    39    22    42 1   
    40    22    43 1   
    41    23    24 1   
    42    23    44 1   
    43    23    45 1   
    44    24    25 1   
    45    24    46 1   
    46    24    47 1   
    47    25    48 1   
    48    25    49 1   
    49    26    50 1   
    50    33    51 1   
    51    34    51 1   
    52    35    51 1   
    53    38    52 1   
    54    39    52 1   
    55    40    52 1   
@<TRIPOS>SUBSTRUCTURE
     1 YSI         1 TEMP              0 ****  ****    0 ROOT
