@<TRIPOS>MOLECULE
YSJ
   55    59     1     0     0
SMALL
bcc


@<TRIPOS>ATOM
      1 C10        -25.5260    -4.5010   -23.1530 c          1 YSJ       0.825500
      2 C11        -21.1450    -4.8340   -25.8830 cc         1 YSJ       0.070600
      3 C12        -18.8430    -5.1040   -26.4700 ca         1 YSJ      -0.108700
      4 C14        -16.2670    -5.4080   -25.7280 ca         1 YSJ       0.415200
      5 C15        -17.0760    -6.5330   -25.7850 ca         1 YSJ      -0.243300
      6 C16        -18.3980    -6.3800   -26.1700 ca         1 YSJ      -0.079000
      7 C18        -21.8030    -5.1610   -30.9390 ca         1 YSJ      -0.157000
      8 C19        -22.1680    -4.9640   -32.2620 ca         1 YSJ       0.110100
      9 C20        -20.6560    -6.5620   -33.1520 c3         1 YSJ       0.187700
     10 C22        -19.6790    -5.8780   -35.3740 ca         1 YSJ       0.055400
     11 C23        -19.2290    -6.1620   -36.6530 ca         1 YSJ      -0.126000
     12 C24        -19.2650    -7.4720   -37.1110 ca         1 YSJ      -0.109000
     13 C26        -20.1960    -8.1780   -35.0160 ca         1 YSJ      -0.101000
     14 C27        -22.9590    -3.8620   -32.5850 ca         1 YSJ       0.121900
     15 C1         -23.3880    -2.9910   -31.6070 ca         1 YSJ      -0.000600
     16 C13        -17.9620    -4.0370   -26.3780 ca         1 YSJ       0.437200
     17 C17        -20.4580    -4.7260   -28.2170 c          1 YSJ       0.705700
     18 C2         -23.0180    -3.1860   -30.2830 ca         1 YSJ      -0.125000
     19 C21        -20.1690    -6.8740   -34.5320 ca         1 YSJ      -0.091300
     20 C25        -19.7470    -8.4830   -36.2930 ca         1 YSJ      -0.132000
     21 C3         -22.2230    -4.2730   -29.9460 ca         1 YSJ      -0.006800
     22 C4         -21.8520    -4.4950   -28.5360 cc         1 YSJ      -0.168400
     23 C5         -22.7840    -4.4400   -27.5440 cd         1 YSJ      -0.020000
     24 C6         -22.4550    -4.6170   -26.1760 cd         1 YSJ      -0.142000
     25 C7         -23.4840    -4.5850   -25.1300 cd         1 YSJ      -0.212200
     26 C8         -23.2660    -3.8220   -23.9080 c          1 YSJ       0.734700
     27 C9         -24.6640    -5.2240   -25.2740 cc         1 YSJ       0.055600
     28 N1         -24.3230    -3.8550   -23.0150 ns         1 YSJ      -0.603500
     29 N2         -25.6440    -5.1800   -24.3370 ns         1 YSJ      -0.468100
     30 N3         -20.1980    -4.8770   -26.8540 n          1 YSJ      -0.256200
     31 N4         -16.6970    -4.1840   -26.0160 nb         1 YSJ      -0.654000
     32 O1         -22.2610    -3.1900   -23.6450 o          1 YSJ      -0.599500
     33 O2         -26.3950    -4.4750   -22.3100 o          1 YSJ      -0.616500
     34 O4         -21.8250    -5.7610   -33.2850 os         1 YSJ      -0.302900
     35 CL1        -24.3540    -1.6390   -32.0580 cl         1 YSJ      -0.076400
     36 H6         -20.7860    -4.9960   -24.8770 h4         1 YSJ       0.171000
     37 H8         -15.2280    -5.4990   -25.4340 h4         1 YSJ       0.025100
     38 H9         -16.6770    -7.5070   -25.5350 ha         1 YSJ       0.148000
     39 H10        -19.0680    -7.2280   -26.2360 ha         1 YSJ       0.146000
     40 H11        -21.2070    -6.0210   -30.6680 ha         1 YSJ       0.151000
     41 H13        -20.8840    -7.4860   -32.6130 h1         1 YSJ       0.054700
     42 H12        -19.8890    -6.0250   -32.5840 h1         1 YSJ       0.054700
     43 H14        -18.8520    -5.3710   -37.2860 ha         1 YSJ       0.149000
     44 H15        -18.9140    -7.6960   -38.1090 ha         1 YSJ       0.137000
     45 H17        -20.5760    -8.9650   -34.3760 ha         1 YSJ       0.134000
     46 H7         -18.3020    -3.0320   -26.6040 h4         1 YSJ       0.037100
     47 H1         -23.3370    -2.4780   -29.5290 ha         1 YSJ       0.151000
     48 H16        -19.7780    -9.5040   -36.6460 ha         1 YSJ       0.137000
     49 H2         -23.8200    -4.2550   -27.8080 ha         1 YSJ       0.137000
     50 H4         -24.8970    -5.8170   -26.1480 h4         1 YSJ       0.160000
     51 H3         -24.2010    -3.3380   -22.1530 hn         1 YSJ       0.347500
     52 H5         -26.5080    -5.6780   -24.5010 hn         1 YSJ       0.352500
     53 O3         -19.5420    -4.7810   -29.0230 o          1 YSJ      -0.604500
     54 F1         -23.2910    -3.6560   -33.8590 f          1 YSJ      -0.109900
     55 CL2        -19.6090    -4.2360   -34.8190 cl         1 YSJ      -0.097400
@<TRIPOS>BOND
     1     1    28 1   
     2     1    29 1   
     3     1    33 2   
     4     2    24 2   
     5     2    30 1   
     6     2    36 1   
     7     3     6 ar  
     8     3    16 ar  
     9     3    30 1   
    10     4     5 ar  
    11     4    31 ar  
    12     4    37 1   
    13     5     6 ar  
    14     5    38 1   
    15     6    39 1   
    16     7     8 ar  
    17     7    21 ar  
    18     7    40 1   
    19     8    14 ar  
    20     8    34 1   
    21     9    19 1   
    22     9    34 1   
    23     9    41 1   
    24     9    42 1   
    25    10    11 ar  
    26    10    19 ar  
    27    10    55 1   
    28    11    12 ar  
    29    11    43 1   
    30    12    20 ar  
    31    12    44 1   
    32    13    19 ar  
    33    13    20 ar  
    34    13    45 1   
    35    14    15 ar  
    36    14    54 1   
    37    15    18 ar  
    38    15    35 1   
    39    16    31 ar  
    40    16    46 1   
    41    17    22 1   
    42    17    30 1   
    43    17    53 2   
    44    18    21 ar  
    45    18    47 1   
    46    20    48 1   
    47    21    22 1   
    48    22    23 2   
    49    23    24 1   
    50    23    49 1   
    51    24    25 1   
    52    25    26 1   
    53    25    27 2   
    54    26    28 1   
    55    26    32 2   
    56    27    29 1   
    57    27    50 1   
    58    28    51 1   
    59    29    52 1   
@<TRIPOS>SUBSTRUCTURE
     1 YSJ         1 TEMP              0 ****  ****    0 ROOT
