@<TRIPOS>MOLECULE
YSJ
   55    59     1     0     0
SMALL
No Charge or Current Charge


@<TRIPOS>ATOM
      1 C10        -25.6140    -5.5180   -23.5480 c          1 YSJ       0.616000
      2 C11        -21.0490    -4.6990   -25.9480 cc         1 YSJ       0.020600
      3 C12        -18.6180    -4.6010   -26.3210 ca         1 YSJ      -0.043400
      4 C14        -16.0520    -4.6470   -25.2530 ca         1 YSJ       0.349900
      5 C15        -16.9990    -5.5730   -24.7930 ca         1 YSJ      -0.160000
      6 C16        -18.3030    -5.5430   -25.3140 ca         1 YSJ      -0.061000
      7 C18        -21.5900    -4.7400   -31.0180 ca         1 YSJ      -0.139000
      8 C19        -21.9810    -4.4960   -32.3550 ca         1 YSJ       0.110100
      9 C20        -20.6470    -6.3930   -33.2180 c3         1 YSJ       0.210900
     10 C22        -19.4160    -6.4400   -35.4620 ca         1 YSJ       0.147000
     11 C23        -19.1680    -7.0310   -36.7130 ca         1 YSJ      -0.108000
     12 C24        -19.8560    -8.1950   -37.0960 ca         1 YSJ      -0.091000
     13 C26        -21.0460    -8.1810   -34.9720 ca         1 YSJ      -0.083000
     14 C27        -22.8390    -3.4130   -32.6360 ca         1 YSJ       0.157000
     15 C1         -23.3000    -2.5840   -31.5960 ca         1 YSJ       0.091000
     16 C13        -17.5990    -3.6790   -26.6820 ca         1 YSJ       0.371900
     17 C17        -20.2180    -4.1830   -28.1910 c          1 YSJ       0.563200
     18 C2         -22.9060    -2.8340   -30.2720 ca         1 YSJ      -0.107000
     19 C21        -20.3580    -7.0140   -34.5790 ca         1 YSJ      -0.091300
     20 C25        -20.7950    -8.7690   -36.2240 ca         1 YSJ      -0.114000
     21 C3         -22.0500    -3.9120   -29.9760 ca         1 YSJ      -0.006800
     22 C4         -21.6400    -4.1710   -28.5950 cc         1 YSJ      -0.168400
     23 C5         -22.6780    -4.4390   -27.7250 cd         1 YSJ      -0.070000
     24 C6         -22.3840    -4.7240   -26.3350 cd         1 YSJ      -0.142000
     25 C7         -23.4190    -5.0170   -25.3270 cd         1 YSJ      -0.212200
     26 C8         -23.1950    -5.4340   -23.8890 c          1 YSJ       0.592200
     27 C9         -24.7400    -4.8970   -25.7470 cc         1 YSJ       0.005600
     28 N1         -24.3280    -5.6330   -23.1590 ns         1 YSJ      -0.469500
     29 N2         -25.7650    -5.1510   -24.8460 ns         1 YSJ      -0.514600
     30 N3         -19.9780    -4.4490   -26.8210 n          1 YSJ      -0.189200
     31 N4         -16.3420    -3.7030   -26.1750 nb         1 YSJ      -0.654000
     32 O1         -22.1140    -5.6130   -23.3560 o          1 YSJ      -0.524000
     33 O2         -26.5550    -5.7230   -22.8070 o          1 YSJ      -0.541000
     34 O4         -21.5460    -5.2860   -33.4050 os         1 YSJ      -0.326100
     35 Cl1        -24.3720    -1.2250   -31.9350 cl         1 YSJ      -0.168000
     36 H6         -20.6920    -4.8150   -24.9390 h4         1 YSJ       0.221000
     37 H8         -15.0350    -4.6510   -24.8620 h4         1 YSJ       0.025100
     38 H9         -16.7210    -6.3030   -24.0390 ha         1 YSJ       0.130000
     39 H10        -19.0350    -6.2680   -24.9640 ha         1 YSJ       0.128000
     40 H11        -20.9330    -5.5680   -30.7690 ha         1 YSJ       0.133000
     41 H13        -21.0980    -7.1470   -32.5590 h1         1 YSJ       0.054700
     42 H12        -19.7090    -6.0620   -32.7540 h1         1 YSJ       0.054700
     43 H14        -18.4410    -6.5840   -37.3880 ha         1 YSJ       0.131000
     44 H15        -19.6620    -8.6500   -38.0650 ha         1 YSJ       0.119000
     45 H17        -21.7790    -8.6340   -34.3070 ha         1 YSJ       0.116000
     46 H7         -17.7990    -2.8700   -27.3820 h4         1 YSJ       0.037100
     47 H1         -23.2610    -2.1850   -29.4760 ha         1 YSJ       0.133000
     48 H16        -21.3310    -9.6690   -36.5180 ha         1 YSJ       0.119000
     49 H2         -23.6840    -4.4470   -28.1250 ha         1 YSJ       0.187000
     50 H4         -25.1210    -4.6000   -26.7170 h4         1 YSJ       0.210000
     51 H3         -24.1860    -5.9090   -22.2020 hn         1 YSJ       0.347500
     52 H5         -26.7350    -5.0630   -25.1370 hn         1 YSJ       0.466000
     53 O3         -19.3110    -4.0000   -28.9950 o          1 YSJ      -0.529000
     54 F1         -23.2210    -3.1680   -33.9140 f          1 YSJ      -0.145000
     55 Cl2        -18.5290    -4.9770   -35.0310 cl         1 YSJ      -0.189000
@<TRIPOS>BOND
     1     1    28 1   
     2     1    29 1   
     3     1    33 2   
     4     2    24 2   
     5     2    30 1   
     6     2    36 1   
     7     3     6 ar  
     8     3    16 ar  
     9     3    30 1   
    10     4     5 ar  
    11     4    31 ar  
    12     4    37 1   
    13     5     6 ar  
    14     5    38 1   
    15     6    39 1   
    16     7     8 ar  
    17     7    21 ar  
    18     7    40 1   
    19     8    14 ar  
    20     8    34 1   
    21     9    19 1   
    22     9    34 1   
    23     9    41 1   
    24     9    42 1   
    25    10    11 ar  
    26    10    19 ar  
    27    10    55 1   
    28    11    12 ar  
    29    11    43 1   
    30    12    20 ar  
    31    12    44 1   
    32    13    19 ar  
    33    13    20 ar  
    34    13    45 1   
    35    14    15 ar  
    36    14    54 1   
    37    15    18 ar  
    38    15    35 1   
    39    16    31 ar  
    40    16    46 1   
    41    17    22 1   
    42    17    30 1   
    43    17    53 2   
    44    18    21 ar  
    45    18    47 1   
    46    20    48 1   
    47    21    22 1   
    48    22    23 2   
    49    23    24 1   
    50    23    49 1   
    51    24    25 1   
    52    25    26 1   
    53    25    27 2   
    54    26    28 1   
    55    26    32 2   
    56    27    29 1   
    57    27    50 1   
    58    28    51 1   
    59    29    52 1   
@<TRIPOS>SUBSTRUCTURE
     1 YSJ         1 TEMP              0 ****  ****    0 ROOT
