@<TRIPOS>MOLECULE
YSK
   51    54     1     0     0
SMALL
No Charge or Current Charge


@<TRIPOS>ATOM
      1 C10        -21.5650   -13.9600    10.9600 ca         1 YSK      -0.068000
      2 C11        -22.0620   -12.6470    10.9840 ca         1 YSK      -0.081800
      3 C12        -22.5380   -12.0860    12.1380 ca         1 YSK      -0.061200
      4 C14        -22.6640   -10.4350    10.5310 cc         1 YSK      -0.052300
      5 C15        -22.9840    -9.1280     9.8680 c          1 YSK       0.723200
      6 C18        -22.1510   -11.6140     9.9610 cd         1 YSK      -0.159400
      7 C19        -21.5100   -11.7800     8.6370 ca         1 YSK       0.103200
      8 C20        -20.6650   -10.7870     8.1020 ca         1 YSK      -0.085000
      9 C21        -20.0360   -10.9650     6.8580 ca         1 YSK      -0.090000
     10 C22        -20.2430   -12.1440     6.1190 ca         1 YSK      -0.166300
     11 C23        -19.5550   -12.3230     4.7610 c3         1 YSK      -0.199100
     12 C02        -26.6960   -12.4400    14.6320 cc         1 YSK       0.477300
     13 C04        -24.6550   -11.9740    14.5810 cd         1 YSK       0.559300
     14 C05        -23.1460   -12.1170    14.6250 c3         1 YSK      -0.030700
     15 C06        -22.6680   -12.7630    15.9510 c3         1 YSK      -0.080100
     16 C07        -22.5920   -12.7920    13.3570 ca         1 YSK      -0.097300
     17 C08        -22.1300   -14.1330    13.3400 ca         1 YSK      -0.097000
     18 C09        -21.6140   -14.7040    12.1550 ca         1 YSK      -0.160000
     19 C28        -21.0810   -13.1440     6.6560 ca         1 YSK       0.189000
     20 C30        -21.7030   -12.9640     7.8990 ca         1 YSK      -0.160000
     21 F29        -21.2930   -14.2930     5.9760 f          1 YSK      -0.186000
     22 N03        -25.5270   -13.0260    14.7640 nd         1 YSK      -0.713000
     23 N13        -22.9040   -10.7750    11.8800 na         1 YSK      -0.194700
     24 N31        -25.2370   -10.8050    14.3530 nc         1 YSK      -0.374300
     25 O16        -22.9010    -9.0050     8.6550 o          1 YSK      -0.697500
     26 O17        -23.3930    -8.2240    10.5860 o          1 YSK      -0.697500
     27 O32        -26.6170   -11.1050    14.3850 os         1 YSK      -0.089700
     28 S24        -20.5280   -11.7990     3.3200 s6         1 YSK       1.065000
     29 H101       -21.1430   -14.4010    10.0620 ha         1 YSK       0.108000
     30 H201       -20.4670    -9.8810     8.6680 ha         1 YSK       0.137000
     31 H211       -19.3830   -10.1840     6.4730 ha         1 YSK       0.098000
     32 H231       -19.3080   -13.3760     4.5880 h1         1 YSK       0.095700
     33 H232       -18.6270   -11.7420     4.7220 h1         1 YSK       0.095700
     34 H252       -21.5100   -10.0160     4.5300 h1         1 YSK       0.104700
     35 H253       -19.9570    -9.5390     3.7380 h1         1 YSK       0.104700
     36 H251       -21.4630    -9.7020     2.7530 h1         1 YSK       0.104700
     37 H012       -28.6160   -12.6620    15.5580 hc         1 YSK       0.067033
     38 H013       -28.6090   -12.9410    13.8040 hc         1 YSK       0.067033
     39 H011       -27.9460   -14.1690    14.9010 hc         1 YSK       0.067033
     40 H051       -22.7270   -11.1030    14.6510 hc         1 YSK       0.073700
     41 H062       -22.9800   -12.1520    16.8060 hc         1 YSK       0.039033
     42 H063       -23.0920   -13.7660    16.0850 hc         1 YSK       0.039033
     43 H061       -21.5740   -12.8410    15.9720 hc         1 YSK       0.039033
     44 H081       -22.1560   -14.7430    14.2380 ha         1 YSK       0.096000
     45 H091       -21.2470   -15.7280    12.1660 ha         1 YSK       0.094000
     46 H301       -22.3640   -13.7390     8.2740 ha         1 YSK       0.133000
     47 H131       -23.3110   -10.1390    12.5570 hn         1 YSK       0.377000
     48 O26        -21.7970   -12.5380     3.3160 o          1 YSK      -0.530000
     49 O27        -19.6580   -11.8640     2.1380 o          1 YSK      -0.530000
     50 C01        -28.0420   -13.0910    14.7290 c3         1 YSK      -0.127400
     51 C25        -20.9050   -10.0720     3.6190 c3         1 YSK      -0.331100
@<TRIPOS>BOND
     1     1     2 ar  
     2     1    18 ar  
     3     1    29 1   
     4     2     3 ar  
     5     2     6 1   
     6     3    16 ar  
     7     3    23 1   
     8     4     5 1   
     9     4     6 2   
    10     4    23 1   
    11     5    25 1   
    12     5    26 1   
    13     6     7 1   
    14     7     8 ar  
    15     7    20 ar  
    16     8     9 ar  
    17     8    30 1   
    18     9    10 ar  
    19     9    31 1   
    20    10    11 1   
    21    10    19 ar  
    22    11    28 1   
    23    11    32 1   
    24    11    33 1   
    25    12    22 2   
    26    12    27 1   
    27    12    50 1   
    28    13    14 1   
    29    13    22 1   
    30    13    24 2   
    31    14    15 1   
    32    14    16 1   
    33    14    40 1   
    34    15    41 1   
    35    15    42 1   
    36    15    43 1   
    37    16    17 ar  
    38    17    18 ar  
    39    17    44 1   
    40    18    45 1   
    41    19    20 ar  
    42    19    21 1   
    43    20    46 1   
    44    23    47 1   
    45    24    27 1   
    46    28    48 2   
    47    28    49 2   
    48    28    51 1   
    49    34    51 1   
    50    35    51 1   
    51    36    51 1   
    52    37    50 1   
    53    38    50 1   
    54    39    50 1   
@<TRIPOS>SUBSTRUCTURE
     1 YSK         1 TEMP              0 ****  ****    0 ROOT
