@<TRIPOS>MOLECULE
YSK
   51    54     1     0     0
SMALL
abcg2


@<TRIPOS>ATOM
      1 C10        -21.4070   -13.9270    11.0750 ca         1 YSK      -0.068000
      2 C11        -21.9440   -12.6340    11.0420 ca         1 YSK      -0.081800
      3 C12        -22.4810   -12.0830    12.2250 ca         1 YSK      -0.061200
      4 C14        -22.6610   -10.5390    10.6090 cc         1 YSK      -0.052300
      5 C15        -23.1280    -9.2070    10.0640 c          1 YSK       0.723200
      6 C18        -22.0600   -11.6310    10.0220 cd         1 YSK      -0.159400
      7 C19        -21.5230   -11.7750     8.6670 ca         1 YSK       0.103200
      8 C20        -20.6320   -10.8380     8.1390 ca         1 YSK      -0.085000
      9 C21        -20.0640   -11.0290     6.8950 ca         1 YSK      -0.090000
     10 C22        -20.3590   -12.1520     6.1210 ca         1 YSK      -0.166300
     11 C23        -19.7230   -12.3600     4.7900 c3         1 YSK      -0.199100
     12 C02        -26.5580   -12.4160    14.3500 cc         1 YSK       0.477300
     13 C04        -24.5420   -11.9530    14.5330 cd         1 YSK       0.559300
     14 C05        -23.0640   -12.1110    14.6840 c3         1 YSK      -0.030700
     15 C06        -22.7430   -12.8350    15.9890 c3         1 YSK      -0.080100
     16 C07        -22.5020   -12.7740    13.4450 ca         1 YSK      -0.097300
     17 C08        -21.9790   -14.0530    13.4300 ca         1 YSK      -0.097000
     18 C09        -21.4380   -14.6230    12.2650 ca         1 YSK      -0.160000
     19 C28        -21.2520   -13.0640     6.6590 ca         1 YSK       0.189000
     20 C30        -21.8280   -12.9010     7.9040 ca         1 YSK      -0.160000
     21 F29        -21.5530   -14.1670     5.9570 f          1 YSK      -0.186000
     22 N03        -25.4140   -13.0000    14.4950 nd         1 YSK      -0.713000
     23 N13        -22.9000   -10.8240    11.9240 na         1 YSK      -0.194700
     24 N31        -25.1140   -10.7950    14.4170 nc         1 YSK      -0.374300
     25 O16        -23.0510    -9.0430     8.8360 o          1 YSK      -0.697500
     26 O17        -23.5630    -8.4150    10.9230 o          1 YSK      -0.697500
     27 O32        -26.4450   -11.0950    14.2940 os         1 YSK      -0.089700
     28 S24        -20.7530   -11.8010     3.4160 s6         1 YSK       1.065000
     29 H101       -20.9730   -14.3720    10.1890 ha         1 YSK       0.108000
     30 H201       -20.3630    -9.9680     8.7200 ha         1 YSK       0.137000
     31 H211       -19.3580   -10.3010     6.5130 ha         1 YSK       0.098000
     32 H231       -19.5210   -13.4090     4.5660 h1         1 YSK       0.095700
     33 H232       -18.7840   -11.8100     4.7040 h1         1 YSK       0.095700
     34 H252       -21.4060    -9.8250     4.5760 h1         1 YSK       0.104700
     35 H253       -19.8910    -9.5980     3.6540 h1         1 YSK       0.104700
     36 H251       -21.4580    -9.6550     2.8040 h1         1 YSK       0.104700
     37 H012       -28.6720   -12.2830    14.1000 hc         1 YSK       0.067033
     38 H013       -27.9230   -13.7350    13.4200 hc         1 YSK       0.067033
     39 H011       -28.1210   -13.5870    15.1610 hc         1 YSK       0.067033
     40 H051       -22.6430   -11.1010    14.7490 hc         1 YSK       0.073700
     41 H062       -23.1190   -12.2620    16.8360 hc         1 YSK       0.039033
     42 H063       -23.1950   -13.8250    16.0280 hc         1 YSK       0.039033
     43 H061       -21.6660   -12.9440    16.1090 hc         1 YSK       0.039033
     44 H081       -21.9680   -14.6400    14.3390 ha         1 YSK       0.096000
     45 H091       -21.0320   -15.6250    12.3110 ha         1 YSK       0.094000
     46 H301       -22.5190   -13.6490     8.2720 ha         1 YSK       0.133000
     47 H131       -23.3780   -10.1770    12.5310 hn         1 YSK       0.377000
     48 O26        -22.0890   -12.3790     3.5450 o          1 YSK      -0.530000
     49 O27        -19.9990   -12.0590     2.1900 o          1 YSK      -0.530000
     50 C01        -27.8990   -13.0310    14.2510 c3         1 YSK      -0.127400
     51 C25        -20.8840   -10.0410     3.6460 c3         1 YSK      -0.331100
@<TRIPOS>BOND
     1     1     2 ar  
     2     1    18 ar  
     3     1    29 1   
     4     2     3 ar  
     5     2     6 1   
     6     3    16 ar  
     7     3    23 1   
     8     4     5 1   
     9     4     6 2   
    10     4    23 1   
    11     5    25 1   
    12     5    26 1   
    13     6     7 1   
    14     7     8 ar  
    15     7    20 ar  
    16     8     9 ar  
    17     8    30 1   
    18     9    10 ar  
    19     9    31 1   
    20    10    11 1   
    21    10    19 ar  
    22    11    28 1   
    23    11    32 1   
    24    11    33 1   
    25    12    22 2   
    26    12    27 1   
    27    12    50 1   
    28    13    14 1   
    29    13    22 1   
    30    13    24 2   
    31    14    15 1   
    32    14    16 1   
    33    14    40 1   
    34    15    41 1   
    35    15    42 1   
    36    15    43 1   
    37    16    17 ar  
    38    17    18 ar  
    39    17    44 1   
    40    18    45 1   
    41    19    20 ar  
    42    19    21 1   
    43    20    46 1   
    44    23    47 1   
    45    24    27 1   
    46    28    48 2   
    47    28    49 2   
    48    28    51 1   
    49    34    51 1   
    50    35    51 1   
    51    36    51 1   
    52    37    50 1   
    53    38    50 1   
    54    39    50 1   
@<TRIPOS>SUBSTRUCTURE
     1 YSK         1 TEMP              0 ****  ****    0 ROOT
