@<TRIPOS>MOLECULE
YSL
   83    85     1     0     0
SMALL
abcg2


@<TRIPOS>ATOM
      1 O33         -5.2200    -3.6350    -3.3640 oh         1 YSL      -0.665000
      2 C26         -4.2560    -2.7670    -2.8020 c3         1 YSL       0.162600
      3 C25         -4.9760    -1.7010    -1.9960 c3         1 YSL      -0.081400
      4 C20         -4.0590    -0.8740    -1.0850 c3         1 YSL      -0.053700
      5 C21         -4.8640     0.1740    -0.3090 c3         1 YSL      -0.071400
      6 C22         -5.8660    -0.4030     0.6870 c3         1 YSL      -0.077400
      7 C23         -6.5980     0.6740     1.4770 c3         1 YSL      -0.075400
      8 C24         -7.5970     0.1090     2.4790 c3         1 YSL      -0.075400
      9 C31         -8.3480     1.1810     3.2570 c3         1 YSL      -0.074400
     10 C32         -9.3400     0.6020     4.2560 c3         1 YSL      -0.088100
     11 C18         -2.8510    -0.2600    -1.8370 c3         1 YSL      -0.046700
     12 C19         -3.3000     0.7570    -2.8850 c3         1 YSL      -0.086100
     13 C17         -1.7990     0.2970    -0.8660 c5         1 YSL      -0.054700
     14 C13         -0.4470     0.7820    -1.4460 c5         1 YSL      -0.037000
     15 C34          0.1360    -0.2510    -2.4130 c3         1 YSL      -0.079100
     16 C12         -0.4420     2.1780    -2.0740 c6         1 YSL      -0.063400
     17 C11          0.9800     2.6800    -2.3270 c6         1 YSL      -0.071400
     18 C10          1.8580     2.6300    -1.0710 c6         1 YSL      -0.041200
     19 C9           1.8020     1.2870    -0.3960 c2         1 YSL      -0.080400
     20 C14          0.3920     0.8560    -0.1440 c5         1 YSL      -0.036500
     21 C15          0.0950    -0.4580     0.5620 c5         1 YSL      -0.071400
     22 C16         -1.3790    -0.7360     0.2100 c5         1 YSL      -0.077400
     23 C8           2.8640     0.5450    -0.0380 ce         1 YSL      -0.189000
     24 C7           4.2600     0.8740    -0.2580 ce         1 YSL      -0.161000
     25 C6           5.3250     0.1460     0.1140 c2         1 YSL      -0.105400
     26 C5           6.7200     0.6040    -0.1970 c6         1 YSL      -0.032200
     27 C4           7.5650     0.6970     1.0720 c6         1 YSL       0.212000
     28 O31          7.0410     1.7540     1.8520 oh         1 YSL      -0.654000
     29 C3           7.5020    -0.6190     1.8070 c2         1 YSL      -0.199400
     30 C33          8.5960    -1.3260     2.0680 c2         1 YSL      -0.299000
     31 C2           6.1040    -1.0710     2.1510 c6         1 YSL       0.212000
     32 O32          6.0510    -2.3280     2.7750 oh         1 YSL      -0.654000
     33 C1           5.2700    -1.1520     0.8660 c6         1 YSL      -0.032200
     34 H1          -4.7590    -4.2770    -3.9110 ho         1 YSL       0.441000
     35 H2          -3.5640    -3.3120    -2.1440 h1         1 YSL       0.016700
     36 H3          -3.6440    -2.3060    -3.5880 h1         1 YSL       0.016700
     37 H4          -5.5430    -1.0470    -2.6670 hc         1 YSL       0.053200
     38 H5          -5.7150    -2.2060    -1.3670 hc         1 YSL       0.053200
     39 H6          -3.6470    -1.5740    -0.3510 hc         1 YSL       0.044700
     40 H7          -4.1750     0.8200     0.2450 hc         1 YSL       0.040700
     41 H8          -5.3920     0.8290    -1.0100 hc         1 YSL       0.040700
     42 H9          -6.6040    -1.0240     0.1710 hc         1 YSL       0.038700
     43 H10         -5.3420    -1.0710     1.3810 hc         1 YSL       0.038700
     44 H11         -5.8680     1.2990     2.0040 hc         1 YSL       0.036200
     45 H12         -7.1190     1.3400     0.7810 hc         1 YSL       0.036200
     46 H13         -8.3180    -0.5260     1.9520 hc         1 YSL       0.037200
     47 H14         -7.0740    -0.5490     3.1820 hc         1 YSL       0.037200
     48 H15         -7.6280     1.8170     3.7830 hc         1 YSL       0.036200
     49 H16         -8.8730     1.8360     2.5550 hc         1 YSL       0.036200
     50 H17         -8.8370    -0.0280     4.9920 hc         1 YSL       0.031367
     51 H18         -9.8700     1.3850     4.7980 hc         1 YSL       0.031367
     52 H19        -10.0880    -0.0160     3.7540 hc         1 YSL       0.031367
     53 H20         -2.3650    -1.0850    -2.3690 hc         1 YSL       0.044700
     54 H21         -2.5220     0.9450    -3.6240 hc         1 YSL       0.033367
     55 H22         -4.1720     0.4020    -3.4360 hc         1 YSL       0.033367
     56 H23         -3.5650     1.7170    -2.4370 hc         1 YSL       0.033367
     57 H24         -2.2290     1.1660    -0.3520 hc         1 YSL       0.046700
     58 H25         -0.3820    -0.2260    -3.3740 hc         1 YSL       0.033700
     59 H26          1.1940    -0.0760    -2.6090 hc         1 YSL       0.033700
     60 H27          0.0500    -1.2680    -2.0280 hc         1 YSL       0.033700
     61 H28         -1.0000     2.1940    -3.0110 hc         1 YSL       0.040700
     62 H29         -0.9550     2.8720    -1.3970 hc         1 YSL       0.040700
     63 H30          1.4470     2.0900    -3.1200 hc         1 YSL       0.040200
     64 H31          0.9440     3.7080    -2.6960 hc         1 YSL       0.040200
     65 H32          2.8760     2.9290    -1.3220 hc         1 YSL       0.047200
     66 H33          1.4830     3.3770    -0.3600 hc         1 YSL       0.047200
     67 H34         -0.0750     1.6570     0.4510 hc         1 YSL       0.053700
     68 H35          0.7330    -1.2600     0.1840 hc         1 YSL       0.045200
     69 H36          0.2700    -0.3960     1.6370 hc         1 YSL       0.045200
     70 H37         -2.0240    -0.6680     1.0870 hc         1 YSL       0.040700
     71 H38         -1.4930    -1.7550    -0.1700 hc         1 YSL       0.040700
     72 H39          2.6590    -0.3960     0.4610 ha         1 YSL       0.172000
     73 H40          4.4700     1.7980    -0.7870 ha         1 YSL       0.170000
     74 H41          7.2090    -0.1150    -0.8640 hc         1 YSL       0.058200
     75 H42          6.7160     1.5660    -0.7130 hc         1 YSL       0.058200
     76 H43          8.6070     0.9000     0.7910 h1         1 YSL       0.042700
     77 H44          7.5740     1.8270     2.6510 ho         1 YSL       0.441500
     78 H45          9.5750    -0.9580     1.7890 ha         1 YSL       0.167000
     79 H46          8.5690    -2.2910     2.5590 ha         1 YSL       0.167000
     80 H47          5.6480    -0.3040     2.7930 h1         1 YSL       0.042700
     81 H48          6.4640    -2.2570     3.6410 ho         1 YSL       0.441500
     82 H49          4.2500    -1.4420     1.1200 hc         1 YSL       0.058200
     83 H50          5.6910    -1.9500     0.2420 hc         1 YSL       0.058200
@<TRIPOS>BOND
     1     1     2 1   
     2     1    34 1   
     3     2     3 1   
     4     2    35 1   
     5     2    36 1   
     6     3     4 1   
     7     3    37 1   
     8     3    38 1   
     9     4     5 1   
    10     4    11 1   
    11     4    39 1   
    12     5     6 1   
    13     5    40 1   
    14     5    41 1   
    15     6     7 1   
    16     6    42 1   
    17     6    43 1   
    18     7     8 1   
    19     7    44 1   
    20     7    45 1   
    21     8     9 1   
    22     8    46 1   
    23     8    47 1   
    24     9    10 1   
    25     9    48 1   
    26     9    49 1   
    27    10    50 1   
    28    10    51 1   
    29    10    52 1   
    30    11    12 1   
    31    11    13 1   
    32    11    53 1   
    33    12    54 1   
    34    12    55 1   
    35    12    56 1   
    36    13    14 1   
    37    13    22 1   
    38    13    57 1   
    39    14    15 1   
    40    14    16 1   
    41    14    20 1   
    42    15    58 1   
    43    15    59 1   
    44    15    60 1   
    45    16    17 1   
    46    16    61 1   
    47    16    62 1   
    48    17    18 1   
    49    17    63 1   
    50    17    64 1   
    51    18    19 1   
    52    18    65 1   
    53    18    66 1   
    54    19    20 1   
    55    19    23 2   
    56    20    21 1   
    57    20    67 1   
    58    21    22 1   
    59    21    68 1   
    60    21    69 1   
    61    22    70 1   
    62    22    71 1   
    63    23    24 1   
    64    23    72 1   
    65    24    25 2   
    66    24    73 1   
    67    25    26 1   
    68    25    33 1   
    69    26    27 1   
    70    26    74 1   
    71    26    75 1   
    72    27    28 1   
    73    27    29 1   
    74    27    76 1   
    75    28    77 1   
    76    29    30 2   
    77    29    31 1   
    78    30    78 1   
    79    30    79 1   
    80    31    32 1   
    81    31    33 1   
    82    31    80 1   
    83    32    81 1   
    84    33    82 1   
    85    33    83 1   
@<TRIPOS>SUBSTRUCTURE
     1 YSL         1 TEMP              0 ****  ****    0 ROOT
