@<TRIPOS>MOLECULE
YSL
   83    85     1     0     0
SMALL
No Charge or Current Charge


@<TRIPOS>ATOM
      1 O33         -5.6340    -3.5780    -3.5280 oh         1 YSL      -0.665000
      2 C26         -4.5900    -2.8080    -2.9230 c3         1 YSL       0.162600
      3 C25         -5.2050    -1.7220    -2.0110 c3         1 YSL      -0.081400
      4 C20         -4.1860    -0.9240    -1.1280 c3         1 YSL      -0.053700
      5 C21         -4.9080     0.1480    -0.2490 c3         1 YSL      -0.071400
      6 C22         -5.9890    -0.4010     0.7150 c3         1 YSL      -0.077400
      7 C23         -6.5420     0.6780     1.6730 c3         1 YSL      -0.075400
      8 C24         -7.6250     0.1360     2.6320 c3         1 YSL      -0.075400
      9 C31         -8.1770     1.2140     3.5900 c3         1 YSL      -0.074400
     10 C32         -9.2580     0.6740     4.5470 c3         1 YSL      -0.088100
     11 C18         -2.9630    -0.3250    -1.9340 c3         1 YSL      -0.046700
     12 C19         -3.4230     0.7290    -2.9770 c3         1 YSL      -0.086100
     13 C17         -1.7830     0.1830    -1.0190 c5         1 YSL      -0.054700
     14 C13         -0.4370     0.6540    -1.6950 c5         1 YSL      -0.037000
     15 C34          0.1410    -0.3830    -2.7170 c3         1 YSL      -0.079100
     16 C12         -0.4220     2.0820    -2.3820 c6         1 YSL      -0.063400
     17 C11          1.0200     2.6530    -2.6880 c6         1 YSL      -0.071400
     18 C10          1.9510     2.6370    -1.4420 c6         1 YSL      -0.041200
     19 C9           1.8670     1.3350    -0.6300 c2         1 YSL      -0.080400
     20 C14          0.4120     0.8130    -0.3640 c5         1 YSL      -0.036500
     21 C15          0.2390    -0.5890     0.2790 c5         1 YSL      -0.071400
     22 C16         -1.2690    -0.9060     0.0040 c5         1 YSL      -0.077400
     23 C8           2.9130     0.6700    -0.0650 ce         1 YSL      -0.189000
     24 C7           4.3330     1.0750    -0.1430 ce         1 YSL      -0.161000
     25 C6           5.4090     0.3490     0.2540 c2         1 YSL      -0.105400
     26 C5           6.8290     0.9030     0.1360 c6         1 YSL      -0.032200
     27 C4           7.6160     0.8230     1.4710 c6         1 YSL       0.212000
     28 O31          7.1290     1.7850     2.4080 oh         1 YSL      -0.654000
     29 C3           7.5310    -0.5650     2.1030 c2         1 YSL      -0.199400
     30 C33          8.6410    -1.2100     2.5210 c2         1 YSL      -0.299000
     31 C2           6.1000    -1.1180     2.2060 c6         1 YSL       0.212000
     32 O32          6.0920    -2.4580     2.7070 oh         1 YSL      -0.654000
     33 C1           5.3830    -1.0680     0.8350 c6         1 YSL      -0.032200
     34 H1          -5.1980    -4.2530    -4.0940 ho         1 YSL       0.441000
     35 H2          -3.9390    -3.4580    -2.3240 h1         1 YSL       0.016700
     36 H3          -3.9790    -2.3350    -3.7020 h1         1 YSL       0.016700
     37 H4          -5.8030    -1.0340    -2.6190 hc         1 YSL       0.053200
     38 H5          -5.9130    -2.2330    -1.3480 hc         1 YSL       0.053200
     39 H6          -3.7780    -1.6680    -0.4330 hc         1 YSL       0.044700
     40 H7          -4.1690     0.6720     0.3650 hc         1 YSL       0.040700
     41 H8          -5.3670     0.9050    -0.8970 hc         1 YSL       0.040700
     42 H9          -6.8260    -0.8120     0.1400 hc         1 YSL       0.038700
     43 H10         -5.5640    -1.2220     1.3050 hc         1 YSL       0.038700
     44 H11         -5.7160     1.0940     2.2630 hc         1 YSL       0.036200
     45 H12         -6.9620     1.5020     1.0830 hc         1 YSL       0.036200
     46 H13         -8.4520    -0.2790     2.0430 hc         1 YSL       0.037200
     47 H14         -7.2050    -0.6880     3.2210 hc         1 YSL       0.037200
     48 H15         -7.3530     1.6310     4.1830 hc         1 YSL       0.036200
     49 H16         -8.6000     2.0400     3.0050 hc         1 YSL       0.036200
     50 H17         -8.8550    -0.1310     5.1730 hc         1 YSL       0.031367
     51 H18         -9.6180     1.4730     5.2060 hc         1 YSL       0.031367
     52 H19        -10.1130     0.2820     3.9850 hc         1 YSL       0.031367
     53 H20         -2.5420    -1.1530    -2.5130 hc         1 YSL       0.044700
     54 H21         -2.6850     0.8240    -3.7790 hc         1 YSL       0.033367
     55 H22         -4.3600     0.4440    -3.4660 hc         1 YSL       0.033367
     56 H23         -3.5700     1.7100    -2.5110 hc         1 YSL       0.033367
     57 H24         -2.1880     1.0340    -0.4610 hc         1 YSL       0.046700
     58 H25         -0.3900    -0.3270    -3.6740 hc         1 YSL       0.033700
     59 H26          1.2030    -0.2050    -2.9200 hc         1 YSL       0.033700
     60 H27          0.0520    -1.4180    -2.3700 hc         1 YSL       0.033700
     61 H28         -0.9810     2.0690    -3.3230 hc         1 YSL       0.040700
     62 H29         -0.9490     2.7970    -1.7350 hc         1 YSL       0.040700
     63 H30          1.4830     2.0620    -3.4900 hc         1 YSL       0.040200
     64 H31          0.9400     3.6770    -3.0780 hc         1 YSL       0.040200
     65 H32          2.9720     2.8450    -1.7800 hc         1 YSL       0.047200
     66 H33          1.6740     3.4710    -0.7830 hc         1 YSL       0.047200
     67 H34         -0.0630     1.5540     0.2930 hc         1 YSL       0.053700
     68 H35          0.8840    -1.3450    -0.1850 hc         1 YSL       0.045200
     69 H36          0.4680    -0.5840     1.3510 hc         1 YSL       0.045200
     70 H37         -1.8550    -0.8780     0.9290 hc         1 YSL       0.040700
     71 H38         -1.3700    -1.9220    -0.3960 hc         1 YSL       0.040700
     72 H39          2.7240    -0.2180     0.5270 ha         1 YSL       0.172000
     73 H40          4.5220     2.0700    -0.5430 ha         1 YSL       0.170000
     74 H41          7.3690     0.3260    -0.6270 hc         1 YSL       0.058200
     75 H42          6.8200     1.9400    -0.2250 hc         1 YSL       0.058200
     76 H43          8.6690     1.0470     1.2440 h1         1 YSL       0.042700
     77 H44          7.6080     1.6070     3.2450 ho         1 YSL       0.441500
     78 H45          9.6320    -0.7630     2.4210 ha         1 YSL       0.167000
     79 H46          8.6190    -2.2040     2.9680 ha         1 YSL       0.167000
     80 H47          5.5360    -0.4730     2.8980 h1         1 YSL       0.042700
     81 H48          6.5390    -2.4180     3.5790 ho         1 YSL       0.441500
     82 H49          4.3670    -1.4610     0.9450 hc         1 YSL       0.058200
     83 H50          5.8900    -1.7470     0.1370 hc         1 YSL       0.058200
@<TRIPOS>BOND
     1     1     2 1   
     2     1    34 1   
     3     2     3 1   
     4     2    35 1   
     5     2    36 1   
     6     3     4 1   
     7     3    37 1   
     8     3    38 1   
     9     4     5 1   
    10     4    11 1   
    11     4    39 1   
    12     5     6 1   
    13     5    40 1   
    14     5    41 1   
    15     6     7 1   
    16     6    42 1   
    17     6    43 1   
    18     7     8 1   
    19     7    44 1   
    20     7    45 1   
    21     8     9 1   
    22     8    46 1   
    23     8    47 1   
    24     9    10 1   
    25     9    48 1   
    26     9    49 1   
    27    10    50 1   
    28    10    51 1   
    29    10    52 1   
    30    11    12 1   
    31    11    13 1   
    32    11    53 1   
    33    12    54 1   
    34    12    55 1   
    35    12    56 1   
    36    13    14 1   
    37    13    22 1   
    38    13    57 1   
    39    14    15 1   
    40    14    16 1   
    41    14    20 1   
    42    15    58 1   
    43    15    59 1   
    44    15    60 1   
    45    16    17 1   
    46    16    61 1   
    47    16    62 1   
    48    17    18 1   
    49    17    63 1   
    50    17    64 1   
    51    18    19 1   
    52    18    65 1   
    53    18    66 1   
    54    19    20 1   
    55    19    23 2   
    56    20    21 1   
    57    20    67 1   
    58    21    22 1   
    59    21    68 1   
    60    21    69 1   
    61    22    70 1   
    62    22    71 1   
    63    23    24 1   
    64    23    72 1   
    65    24    25 2   
    66    24    73 1   
    67    25    26 1   
    68    25    33 1   
    69    26    27 1   
    70    26    74 1   
    71    26    75 1   
    72    27    28 1   
    73    27    29 1   
    74    27    76 1   
    75    28    77 1   
    76    29    30 2   
    77    29    31 1   
    78    30    78 1   
    79    30    79 1   
    80    31    32 1   
    81    31    33 1   
    82    31    80 1   
    83    32    81 1   
    84    33    82 1   
    85    33    83 1   
@<TRIPOS>SUBSTRUCTURE
     1 YSL         1 TEMP              0 ****  ****    0 ROOT
