@<TRIPOS>MOLECULE
YSM
   55    59     1     0     0
SMALL
No Charge or Current Charge


@<TRIPOS>ATOM
      1 C1         -20.3210    -3.8560   -27.1240 c          1 YSM       0.562200
      2 F1         -18.1740    -6.8650   -36.2020 f          1 YSM      -0.177000
      3 N1         -20.1230    -4.0620   -25.7370 n          1 YSM      -0.189200
      4 C2         -18.7830    -4.2460   -25.1970 ca         1 YSM      -0.043400
      5 C3         -17.7170    -3.3880   -25.5780 ca         1 YSM       0.366900
      6 N3         -24.6010    -4.8720   -22.1270 ns         1 YSM      -0.469500
      7 O3         -26.8370    -4.8490   -21.8250 o          1 YSM      -0.542000
      8 C4         -16.2450    -4.3480   -24.0660 ca         1 YSM       0.349900
      9 O4         -21.6070    -5.1530   -32.3120 os         1 YSM      -0.340100
     10 C5         -17.2420    -5.2090   -23.5850 ca         1 YSM      -0.160000
     11 C6         -18.5320    -5.1500   -24.1390 ca         1 YSM      -0.055000
     12 C7         -21.2230    -4.2230   -24.8790 cc         1 YSM       0.019600
     13 C8         -22.5490    -4.2100   -25.2960 cd         1 YSM      -0.143000
     14 C9         -23.6180    -4.4070   -24.3000 cd         1 YSM      -0.210200
     15 C10        -23.4450    -4.7580   -22.8380 c          1 YSM       0.592200
     16 C11        -24.9230    -4.2510   -24.7580 cc         1 YSM       0.005600
     17 C12        -25.8720    -4.7220   -22.5530 c          1 YSM       0.616000
     18 C13        -22.8000    -3.9820   -26.7050 cd         1 YSM      -0.070000
     19 C14        -21.7320    -3.8040   -27.5620 cc         1 YSM      -0.169400
     20 C15        -22.0990    -3.5970   -28.9630 ca         1 YSM       0.014200
     21 C16        -22.8990    -2.5000   -29.3340 ca         1 YSM      -0.137000
     22 C17        -23.2530    -2.3070   -30.6780 ca         1 YSM       0.152000
     23 C18        -22.8120    -3.2040   -31.6610 ca         1 YSM      -0.136000
     24 C20        -20.7790    -6.3000   -32.0580 c3         1 YSM       0.205900
     25 C21        -20.5160    -7.0070   -33.3810 ca         1 YSM      -0.069300
     26 C22        -21.3450    -8.0680   -33.8000 ca         1 YSM      -0.099000
     27 C23        -21.1030    -8.7200   -35.0230 ca         1 YSM      -0.090000
     28 C24        -20.0300    -8.3140   -35.8350 ca         1 YSM      -0.142000
     29 C26        -19.4430    -6.6040   -34.2010 ca         1 YSM      -0.133000
     30 C19        -22.0140    -4.3010   -31.3050 ca         1 YSM       0.152100
     31 C25        -19.2050    -7.2570   -35.4210 ca         1 YSM       0.168000
     32 C27        -21.6590    -4.4970   -29.9520 ca         1 YSM      -0.172000
     33 N2         -16.4730    -3.4400   -25.0390 nb         1 YSM      -0.655000
     34 N4         -25.9780    -4.4160   -23.8710 ns         1 YSM      -0.514600
     35 O1         -19.3890    -3.7520   -27.9130 o          1 YSM      -0.530000
     36 O2         -22.3840    -4.9560   -22.2700 o          1 YSM      -0.524000
     37 Cl1        -24.2510    -0.9320   -31.1310 cl         1 YSM      -0.200000
     38 H1         -17.8650    -2.6060   -26.3210 h4         1 YSM       0.036100
     39 H6         -24.4920    -5.1050   -21.1540 hn         1 YSM       0.347500
     40 H2         -15.2390    -4.3750   -23.6500 h4         1 YSM       0.025100
     41 H3         -17.0120    -5.9130   -22.7890 ha         1 YSM       0.130000
     42 H4         -19.3020    -5.8250   -23.7720 ha         1 YSM       0.128000
     43 H5         -20.8930    -4.3020   -23.8570 h4         1 YSM       0.221000
     44 H7         -25.2690    -3.9890   -25.7510 h4         1 YSM       0.210000
     45 H9         -23.7960    -3.9660   -27.1290 ha         1 YSM       0.187000
     46 H10        -23.2420    -1.7950   -28.5820 ha         1 YSM       0.131000
     47 H11        -23.0880    -3.0490   -32.6990 ha         1 YSM       0.145000
     48 H13        -21.2770    -6.9920   -31.3660 h1         1 YSM       0.049200
     49 H12        -19.8240    -5.9970   -31.6110 h1         1 YSM       0.049200
     50 H14        -22.1790    -8.3860   -33.1790 ha         1 YSM       0.123000
     51 H15        -21.7470    -9.5380   -35.3400 ha         1 YSM       0.119000
     52 H16        -19.8380    -8.8140   -36.7810 ha         1 YSM       0.133000
     53 H17        -18.7960    -5.7850   -33.8970 ha         1 YSM       0.135000
     54 H18        -21.0450    -5.3410   -29.6510 ha         1 YSM       0.130000
     55 H8         -26.9370    -4.3020   -24.1900 hn         1 YSM       0.466000
@<TRIPOS>BOND
     1     1     3 1   
     2     1    19 1   
     3     1    35 2   
     4     2    31 1   
     5     3     4 1   
     6     3    12 1   
     7     4     5 ar  
     8     4    11 ar  
     9     5    33 ar  
    10     5    38 1   
    11     6    15 1   
    12     6    17 1   
    13     6    39 1   
    14     7    17 2   
    15     8    10 ar  
    16     8    33 ar  
    17     8    40 1   
    18     9    24 1   
    19     9    30 1   
    20    10    11 ar  
    21    10    41 1   
    22    11    42 1   
    23    12    13 2   
    24    12    43 1   
    25    13    14 1   
    26    13    18 1   
    27    14    15 1   
    28    14    16 2   
    29    15    36 2   
    30    16    34 1   
    31    16    44 1   
    32    17    34 1   
    33    18    19 2   
    34    18    45 1   
    35    19    20 1   
    36    20    21 ar  
    37    20    32 ar  
    38    21    22 ar  
    39    21    46 1   
    40    22    23 ar  
    41    22    37 1   
    42    23    30 ar  
    43    23    47 1   
    44    24    25 1   
    45    24    48 1   
    46    24    49 1   
    47    25    26 ar  
    48    25    29 ar  
    49    26    27 ar  
    50    26    50 1   
    51    27    28 ar  
    52    27    51 1   
    53    28    31 ar  
    54    28    52 1   
    55    29    31 ar  
    56    29    53 1   
    57    30    32 ar  
    58    32    54 1   
    59    34    55 1   
@<TRIPOS>SUBSTRUCTURE
     1 YSM         1 TEMP              0 ****  ****    0 ROOT
