@<TRIPOS>MOLECULE
YSM
   55    59     1     0     0
SMALL
abcg2


@<TRIPOS>ATOM
      1 C1         -20.5920    -4.2220   -27.1810 c          1 YSM       0.562200
      2 F1         -17.2850    -7.0780   -35.1690 f          1 YSM      -0.177000
      3 N1         -20.3510    -4.3700   -25.8160 n          1 YSM      -0.189200
      4 C2         -18.9970    -4.5610   -25.4080 ca         1 YSM      -0.043400
      5 C3         -18.2120    -3.4630   -25.0900 ca         1 YSM       0.366900
      6 N3         -24.5280    -3.4070   -22.0290 ns         1 YSM      -0.469500
      7 O3         -26.5970    -4.0520   -21.3400 o          1 YSM      -0.542000
      8 C4         -16.4400    -4.7950   -24.5850 ca         1 YSM       0.349900
      9 O4         -21.7420    -5.2870   -32.2610 os         1 YSM      -0.340100
     10 C5         -17.1480    -5.9510   -24.8810 ca         1 YSM      -0.160000
     11 C6         -18.4610    -5.8320   -25.3060 ca         1 YSM      -0.055000
     12 C7         -21.3120    -4.3410   -24.8590 cc         1 YSM       0.019600
     13 C8         -22.6220    -4.1460   -25.1720 cd         1 YSM      -0.143000
     14 C9         -23.6630    -4.1250   -24.1380 cd         1 YSM      -0.210200
     15 C10        -23.4630    -3.3600   -22.9140 c          1 YSM       0.592200
     16 C11        -24.8350    -4.7740   -24.2940 cc         1 YSM       0.005600
     17 C12        -25.7220    -4.0660   -22.1780 c          1 YSM       0.616000
     18 C13        -22.9340    -3.9850   -26.5460 cd         1 YSM      -0.070000
     19 C14        -21.9860    -4.0300   -27.5240 cc         1 YSM      -0.169400
     20 C15        -22.3400    -3.8330   -28.9430 ca         1 YSM       0.014200
     21 C16        -23.1710    -2.7790   -29.3040 ca         1 YSM      -0.137000
     22 C17        -23.5020    -2.6170   -30.6420 ca         1 YSM       0.152000
     23 C18        -23.0250    -3.4600   -31.6240 ca         1 YSM      -0.136000
     24 C20        -20.8350    -6.3390   -31.9620 c3         1 YSM       0.205900
     25 C21        -20.3430    -6.8940   -33.2660 ca         1 YSM      -0.069300
     26 C22        -21.2110    -7.5620   -34.1260 ca         1 YSM      -0.099000
     27 C23        -20.7490    -8.0560   -35.3360 ca         1 YSM      -0.090000
     28 C24        -19.4180    -7.8990   -35.7050 ca         1 YSM      -0.142000
     29 C26        -19.0120    -6.7300   -33.6260 ca         1 YSM      -0.133000
     30 C19        -22.1870    -4.5140   -31.2530 ca         1 YSM       0.152100
     31 C25        -18.5750    -7.2390   -34.8350 ca         1 YSM       0.168000
     32 C27        -21.8550    -4.7070   -29.9180 ca         1 YSM      -0.172000
     33 N2         -16.9560    -3.5760   -24.6840 nb         1 YSM      -0.655000
     34 N4         -25.8250    -4.7410   -23.3650 ns         1 YSM      -0.514600
     35 O1         -19.6580    -4.2450   -27.9690 o          1 YSM      -0.530000
     36 O2         -22.4690    -2.7170   -22.6410 o          1 YSM      -0.524000
     37 CL1        -24.5310    -1.2980   -31.0960 cl         1 YSM      -0.200000
     38 H1         -18.6240    -2.4620   -25.1650 h4         1 YSM       0.036100
     39 H6         -24.4180    -2.8900   -21.1650 hn         1 YSM       0.347500
     40 H2         -15.4100    -4.8590   -24.2510 h4         1 YSM       0.025100
     41 H3         -16.6800    -6.9200   -24.7800 ha         1 YSM       0.130000
     42 H4         -19.0560    -6.7030   -25.5480 ha         1 YSM       0.128000
     43 H5         -20.9660    -4.4960   -23.8480 h4         1 YSM       0.221000
     44 H7         -25.0550    -5.3690   -25.1700 h4         1 YSM       0.210000
     45 H9         -23.9680    -3.8220   -26.8270 ha         1 YSM       0.187000
     46 H10        -23.5350    -2.0830   -28.5610 ha         1 YSM       0.131000
     47 H11        -23.2810    -3.3110   -32.6650 ha         1 YSM       0.145000
     48 H13        -21.3380    -7.1140   -31.3750 h1         1 YSM       0.049200
     49 H12        -19.9900    -5.9680   -31.3730 h1         1 YSM       0.049200
     50 H14        -22.2490    -7.7010   -33.8500 ha         1 YSM       0.123000
     51 H15        -21.4250    -8.5750   -36.0020 ha         1 YSM       0.119000
     52 H16        -19.0480    -8.2850   -36.6460 ha         1 YSM       0.133000
     53 H17        -18.3200    -6.2120   -32.9730 ha         1 YSM       0.135000
     54 H18        -21.2250    -5.5310   -29.6170 ha         1 YSM       0.130000
     55 H8         -26.6800    -5.2510   -23.5360 hn         1 YSM       0.466000
@<TRIPOS>BOND
     1     1     3 1   
     2     1    19 1   
     3     1    35 2   
     4     2    31 1   
     5     3     4 1   
     6     3    12 1   
     7     4     5 ar  
     8     4    11 ar  
     9     5    33 ar  
    10     5    38 1   
    11     6    15 1   
    12     6    17 1   
    13     6    39 1   
    14     7    17 2   
    15     8    10 ar  
    16     8    33 ar  
    17     8    40 1   
    18     9    24 1   
    19     9    30 1   
    20    10    11 ar  
    21    10    41 1   
    22    11    42 1   
    23    12    13 2   
    24    12    43 1   
    25    13    14 1   
    26    13    18 1   
    27    14    15 1   
    28    14    16 2   
    29    15    36 2   
    30    16    34 1   
    31    16    44 1   
    32    17    34 1   
    33    18    19 2   
    34    18    45 1   
    35    19    20 1   
    36    20    21 ar  
    37    20    32 ar  
    38    21    22 ar  
    39    21    46 1   
    40    22    23 ar  
    41    22    37 1   
    42    23    30 ar  
    43    23    47 1   
    44    24    25 1   
    45    24    48 1   
    46    24    49 1   
    47    25    26 ar  
    48    25    29 ar  
    49    26    27 ar  
    50    26    50 1   
    51    27    28 ar  
    52    27    51 1   
    53    28    31 ar  
    54    28    52 1   
    55    29    31 ar  
    56    29    53 1   
    57    30    32 ar  
    58    32    54 1   
    59    34    55 1   
@<TRIPOS>SUBSTRUCTURE
     1 YSM         1 TEMP              0 ****  ****    0 ROOT
