@<TRIPOS>MOLECULE
YSO
   18    19     1     0     0
SMALL
abcg2


@<TRIPOS>ATOM
      1 CAK         -2.3340     0.2690    -0.0330 cg         1 YSO       0.326000
      2 NAA         -3.4210    -0.1140    -0.0360 n1         1 YSO      -0.449000
      3 CAC         -0.9890     0.7400    -0.0220 ca         1 YSO       0.066000
      4 CAB         -0.7340     2.1000    -0.0060 ca         1 YSO      -0.116000
      5 CAD          0.5890     2.5750    -0.0000 ca         1 YSO      -0.072000
      6 CAL          1.6680     1.7210    -0.0160 ca         1 YSO      -0.121000
      7 CAH          1.4020     0.3470    -0.0340 ca         1 YSO      -0.018200
      8 NAM          2.2150    -0.7240    -0.0650 na         1 YSO      -0.060400
      9 NAJ          1.5290    -1.8830    -0.0650 nc         1 YSO      -0.577100
     10 CAE          0.2560    -1.5770    -0.0510 cd         1 YSO       0.553800
     11 C5           0.0910    -0.1590    -0.0320 ca         1 YSO      -0.229900
     12 NAI         -0.7410    -2.5240    -0.1240 nv         1 YSO      -0.958200
     13 HAB         -1.5540     2.8030    -0.0010 ha         1 YSO       0.128000
     14 HAD          0.7550     3.6430     0.0150 ha         1 YSO       0.120000
     15 HAL          2.6820     2.0980    -0.0140 ha         1 YSO       0.124000
     16 HAM          3.2200    -0.7390    -0.0830 hn         1 YSO       0.381000
     17 HAI1        -0.4020    -3.4670     0.0020 hn         1 YSO       0.451500
     18 HAI2        -1.5230    -2.3520     0.4900 hn         1 YSO       0.451500
@<TRIPOS>BOND
     1     1     2 3   
     2     1     3 1   
     3     3     4 ar  
     4     3    11 ar  
     5     4     5 ar  
     6     4    13 1   
     7     5     6 ar  
     8     5    14 1   
     9     6     7 ar  
    10     6    15 1   
    11     7     8 1   
    12     7    11 ar  
    13     8     9 1   
    14     8    16 1   
    15     9    10 2   
    16    10    11 1   
    17    10    12 1   
    18    12    17 1   
    19    12    18 1   
@<TRIPOS>SUBSTRUCTURE
     1 YSO         1 TEMP              0 ****  ****    0 ROOT
