@<TRIPOS>MOLECULE
YSO
   18    19     1     0     0
SMALL
No Charge or Current Charge


@<TRIPOS>ATOM
      1 CAK         -2.3560     0.2350    -0.0010 cg         1 YSO       0.326000
      2 NAA         -3.4480    -0.1810     0.0120 n1         1 YSO      -0.449000
      3 CAC         -1.0040     0.7290    -0.0110 ca         1 YSO       0.066000
      4 CAB         -0.7430     2.1200     0.0060 ca         1 YSO      -0.116000
      5 CAD          0.5880     2.6060    -0.0020 ca         1 YSO      -0.072000
      6 CAL          1.6750     1.7070    -0.0260 ca         1 YSO      -0.121000
      7 CAH          1.3880     0.3370    -0.0420 ca         1 YSO      -0.018200
      8 NAM          2.2510    -0.7450    -0.0680 na         1 YSO      -0.060400
      9 NAJ          1.5210    -1.9510    -0.0770 nc         1 YSO      -0.577100
     10 CAE          0.2520    -1.5640    -0.0580 cd         1 YSO       0.553800
     11 C5           0.1100    -0.1310    -0.0340 ca         1 YSO      -0.229900
     12 NAI         -0.6890    -2.5230    -0.0570 nv         1 YSO      -0.958200
     13 HAB         -1.5700     2.8280     0.0260 ha         1 YSO       0.128000
     14 HAD          0.7730     3.6790     0.0110 ha         1 YSO       0.120000
     15 HAL          2.7010     2.0690    -0.0330 ha         1 YSO       0.124000
     16 HAM          3.2710    -0.7140    -0.0790 hn         1 YSO       0.381000
     17 HAI1        -0.3780    -3.4670     0.1400 hn         1 YSO       0.451500
     18 HAI2        -1.6330    -2.2780     0.2170 hn         1 YSO       0.451500
@<TRIPOS>BOND
     1     1     2 3   
     2     1     3 1   
     3     3     4 ar  
     4     3    11 ar  
     5     4     5 ar  
     6     4    13 1   
     7     5     6 ar  
     8     5    14 1   
     9     6     7 ar  
    10     6    15 1   
    11     7     8 1   
    12     7    11 ar  
    13     8     9 1   
    14     8    16 1   
    15     9    10 2   
    16    10    11 1   
    17    10    12 1   
    18    12    17 1   
    19    12    18 1   
@<TRIPOS>SUBSTRUCTURE
     1 YSO         1 TEMP              0 ****  ****    0 ROOT
