@<TRIPOS>MOLECULE
YSP
   58    62     1     0     0
SMALL
bcc


@<TRIPOS>ATOM
      1 C7         -21.2260    -4.3170   -26.0340 cc         1 YSP       0.068600
      2 C6         -18.4580    -5.7330   -26.2040 ca         1 YSP      -0.084000
      3 C1         -20.4780    -4.0550   -28.3370 c          1 YSP       0.705700
      4 C2         -18.9010    -4.4720   -26.5600 ca         1 YSP      -0.106700
      5 C4         -16.3400    -4.7400   -25.7520 ca         1 YSP       0.413200
      6 C5         -17.1440    -5.8690   -25.7840 ca         1 YSP      -0.242300
      7 C10        -23.4310    -3.4930   -24.0730 c          1 YSP       0.734700
      8 C11        -24.7380    -4.8800   -25.5400 cc         1 YSP       0.055600
      9 C16        -21.6880    -4.3910   -31.1220 ca         1 YSP      -0.190000
     10 C17        -22.0220    -4.1300   -32.4450 ca         1 YSP       0.153100
     11 C22        -18.8200    -5.9310   -36.6330 ca         1 YSP      -0.136000
     12 C23        -19.2070    -7.1790   -37.1030 ca         1 YSP      -0.113000
     13 C20        -19.2380    -5.4610   -35.3910 ca         1 YSP      -0.040300
     14 C24        -20.0240    -7.9860   -36.3280 ca         1 YSP      -0.138000
     15 C25        -20.4500    -7.5290   -35.0880 ca         1 YSP      -0.105000
     16 C26        -22.8980    -3.0870   -32.7560 ca         1 YSP      -0.157000
     17 C27        -23.4180    -2.3300   -31.7270 ca         1 YSP       0.060400
     18 C28        -23.0890    -2.5630   -30.3990 ca         1 YSP      -0.158000
     19 C12        -25.6760    -4.3040   -23.4060 c          1 YSP       0.825500
     20 C13        -22.8340    -3.9120   -27.7220 cd         1 YSP      -0.021000
     21 C14        -21.8730    -3.8750   -28.6880 cc         1 YSP      -0.167400
     22 C15        -22.2160    -3.6030   -30.0970 ca         1 YSP       0.013200
     23 C18        -20.5590    -5.8220   -33.2740 c3         1 YSP       0.185700
     24 C19        -20.0680    -6.2800   -34.6130 ca         1 YSP      -0.098300
     25 C3         -18.0240    -3.3990   -26.4880 ca         1 YSP       0.439200
     26 C8         -22.5350    -4.1420   -26.3550 cd         1 YSP      -0.142000
     27 C9         -23.5890    -4.2030   -25.3350 cd         1 YSP      -0.211200
     28 N1         -20.2500    -4.2680   -26.9760 n          1 YSP      -0.255200
     29 N2         -16.7670    -3.5290   -26.0950 nb         1 YSP      -0.655000
     30 N3         -24.5060    -3.6150   -23.2080 ns         1 YSP      -0.603500
     31 N4         -25.7410    -4.9230   -24.6260 ns         1 YSP      -0.468100
     32 O1         -19.5370    -4.0210   -29.1150 o          1 YSP      -0.605500
     33 O3         -26.5630    -4.3580   -22.5820 o          1 YSP      -0.617500
     34 O4         -21.5540    -4.8260   -33.4950 os         1 YSP      -0.317900
     35 CL1        -24.4980    -1.0280   -32.1080 cl         1 YSP      -0.110400
     36 H5         -20.8880    -4.5130   -25.0270 h4         1 YSP       0.170000
     37 H4         -19.1230    -6.5860   -26.2540 ha         1 YSP       0.145000
     38 H2         -15.3070    -4.8160   -25.4330 h4         1 YSP       0.025100
     39 H3         -16.7490    -6.8320   -25.4910 ha         1 YSP       0.147000
     40 H7         -24.9270    -5.4370   -26.4480 h4         1 YSP       0.161000
     41 H10        -21.0280    -5.2080   -30.8700 ha         1 YSP       0.149000
     42 H13        -19.6340    -3.4040   -34.8770 hc         1 YSP       0.047700
     43 H14        -18.3680    -4.1440   -33.9150 hc         1 YSP       0.047700
     44 H15        -18.0470    -3.6850   -35.5830 hc         1 YSP       0.047700
     45 H16        -18.1750    -5.3080   -37.2420 ha         1 YSP       0.131000
     46 H17        -18.8650    -7.5190   -38.0720 ha         1 YSP       0.131000
     47 H18        -20.3290    -8.9620   -36.6820 ha         1 YSP       0.132000
     48 H19        -21.0900    -8.1550   -34.4770 ha         1 YSP       0.128000
     49 H20        -23.1520    -2.8820   -33.7880 ha         1 YSP       0.162000
     50 H21        -23.4870    -1.9310   -29.6170 ha         1 YSP       0.148000
     51 H9         -23.8690    -3.7610   -28.0070 ha         1 YSP       0.138000
     52 H11        -20.9830    -6.6620   -32.7140 h1         1 YSP       0.045700
     53 H12        -19.7390    -5.4090   -32.6760 h1         1 YSP       0.045700
     54 H1         -18.3600    -2.4020   -26.7550 h4         1 YSP       0.037100
     55 H6         -24.4250    -3.1370   -22.3190 hn         1 YSP       0.347500
     56 H8         -26.5770    -5.4500   -24.8340 hn         1 YSP       0.352500
     57 O2         -22.4620    -2.8310   -23.7550 o          1 YSP      -0.599500
     58 C21        -18.7990    -4.1050   -34.9170 c3         1 YSP      -0.053800
@<TRIPOS>BOND
     1     1    26 2   
     2     1    28 1   
     3     1    36 1   
     4     2     4 ar  
     5     2     6 ar  
     6     2    37 1   
     7     3    21 1   
     8     3    28 1   
     9     3    32 2   
    10     4    25 ar  
    11     4    28 1   
    12     5     6 ar  
    13     5    29 ar  
    14     5    38 1   
    15     6    39 1   
    16     7    27 1   
    17     7    30 1   
    18     7    57 2   
    19     8    27 2   
    20     8    31 1   
    21     8    40 1   
    22     9    10 ar  
    23     9    22 ar  
    24     9    41 1   
    25    10    16 ar  
    26    10    34 1   
    27    11    12 ar  
    28    11    13 ar  
    29    11    45 1   
    30    12    14 ar  
    31    12    46 1   
    32    13    24 ar  
    33    13    58 1   
    34    14    15 ar  
    35    14    47 1   
    36    15    24 ar  
    37    15    48 1   
    38    16    17 ar  
    39    16    49 1   
    40    17    18 ar  
    41    17    35 1   
    42    18    22 ar  
    43    18    50 1   
    44    19    30 1   
    45    19    31 1   
    46    19    33 2   
    47    20    21 2   
    48    20    26 1   
    49    20    51 1   
    50    21    22 1   
    51    23    24 1   
    52    23    34 1   
    53    23    52 1   
    54    23    53 1   
    55    25    29 ar  
    56    25    54 1   
    57    26    27 1   
    58    30    55 1   
    59    31    56 1   
    60    42    58 1   
    61    43    58 1   
    62    44    58 1   
@<TRIPOS>SUBSTRUCTURE
     1 YSP         1 TEMP              0 ****  ****    0 ROOT
