@<TRIPOS>MOLECULE
YSP
   58    62     1     0     0
SMALL
No Charge or Current Charge


@<TRIPOS>ATOM
      1 C7         -21.1530    -4.1840   -26.0390 cc         1 YSP       0.018600
      2 C6         -18.4160    -5.0140   -25.3550 ca         1 YSP      -0.066000
      3 C1         -20.2760    -3.6290   -28.2550 c          1 YSP       0.563200
      4 C2         -18.7150    -4.0600   -26.3550 ca         1 YSP      -0.041400
      5 C4         -16.1730    -4.1010   -25.2290 ca         1 YSP       0.347900
      6 C5         -17.1240    -5.0410   -24.8050 ca         1 YSP      -0.159000
      7 C10        -23.3390    -4.9620   -24.0390 c          1 YSP       0.592200
      8 C11        -24.8460    -4.4110   -25.9240 cc         1 YSP       0.005600
      9 C16        -21.5820    -4.1560   -31.1200 ca         1 YSP      -0.172000
     10 C17        -21.9490    -3.8930   -32.4590 ca         1 YSP       0.153100
     11 C22        -19.0450    -6.3730   -36.8130 ca         1 YSP      -0.118000
     12 C23        -19.7440    -7.5200   -37.2220 ca         1 YSP      -0.095000
     13 C20        -19.3040    -5.7820   -35.5590 ca         1 YSP      -0.040300
     14 C24        -20.7120    -8.0870   -36.3790 ca         1 YSP      -0.120000
     15 C25        -20.9780    -7.5080   -35.1280 ca         1 YSP      -0.087000
     16 C26        -22.8060    -2.8200   -32.7440 ca         1 YSP      -0.139000
     17 C27        -23.2930    -2.0130   -31.7070 ca         1 YSP       0.152000
     18 C28        -22.9280    -2.2730   -30.3780 ca         1 YSP      -0.140000
     19 C12        -25.7650    -5.0690   -23.7540 c          1 YSP       0.616000
     20 C13        -22.7440    -3.9090   -27.8480 cd         1 YSP      -0.071000
     21 C14        -21.6880    -3.6220   -28.6910 cc         1 YSP      -0.167400
     22 C15        -22.0690    -3.3460   -30.0760 ca         1 YSP       0.013200
     23 C18        -20.5980    -5.7610   -33.3370 c3         1 YSP       0.208900
     24 C19        -20.2790    -6.3570   -34.7060 ca         1 YSP      -0.098300
     25 C3         -17.6960    -3.1260   -26.6800 ca         1 YSP       0.373900
     26 C8         -22.4790    -4.2130   -26.4560 cd         1 YSP      -0.142000
     27 C9         -23.5340    -4.5270   -25.4750 cd         1 YSP      -0.211200
     28 N1         -20.0650    -3.9120   -26.8830 n          1 YSP      -0.188200
     29 N2         -16.4500    -3.1460   -26.1440 nb         1 YSP      -0.655000
     30 N3         -24.4870    -5.1800   -23.3380 ns         1 YSP      -0.469500
     31 N4         -25.8890    -4.6860   -25.0500 ns         1 YSP      -0.514600
     32 O1         -19.3520    -3.4270   -29.0350 o          1 YSP      -0.530000
     33 O3         -26.7200    -5.2920   -23.0380 o          1 YSP      -0.542000
     34 O4         -21.4970    -4.6530   -33.5170 os         1 YSP      -0.341100
     35 Cl1        -24.3660    -0.6680   -32.0730 cl         1 YSP      -0.202000
     36 H5         -20.8170    -4.3110   -25.0230 h4         1 YSP       0.220000
     37 H4         -19.1490    -5.7500   -25.0320 ha         1 YSP       0.127000
     38 H2         -15.1660    -4.1020   -24.8150 h4         1 YSP       0.025100
     39 H3         -16.8560    -5.7800   -24.0540 ha         1 YSP       0.129000
     40 H7         -25.2070    -4.1050   -26.8990 h4         1 YSP       0.211000
     41 H10        -20.9240    -4.9820   -30.8730 ha         1 YSP       0.131000
     42 H13        -19.2040    -3.7140   -34.8820 hc         1 YSP       0.047700
     43 H14        -17.8800    -4.7360   -34.2890 hc         1 YSP       0.047700
     44 H15        -17.8850    -4.1700   -35.9620 hc         1 YSP       0.047700
     45 H16        -18.2980    -5.9420   -37.4760 ha         1 YSP       0.113000
     46 H17        -19.5370    -7.9680   -38.1910 ha         1 YSP       0.113000
     47 H18        -21.2560    -8.9740   -36.6950 ha         1 YSP       0.114000
     48 H19        -21.7320    -7.9550   -34.4840 ha         1 YSP       0.110000
     49 H20        -23.0910    -2.6140   -33.7720 ha         1 YSP       0.144000
     50 H21        -23.3070    -1.6360   -29.5830 ha         1 YSP       0.130000
     51 H9         -23.7400    -3.9180   -28.2710 ha         1 YSP       0.188000
     52 H11        -21.0590    -6.5280   -32.7010 h1         1 YSP       0.045700
     53 H12        -19.6710    -5.4360   -32.8470 h1         1 YSP       0.045700
     54 H1         -17.8860    -2.3070   -27.3720 h4         1 YSP       0.037100
     55 H6         -24.3640    -5.4680   -22.3810 hn         1 YSP       0.347500
     56 H8         -26.8530    -4.6020   -25.3620 hn         1 YSP       0.466000
     57 O2         -22.2690    -5.1390   -23.4830 o          1 YSP      -0.524000
     58 C21        -18.5270    -4.5330   -35.1510 c3         1 YSP      -0.053800
@<TRIPOS>BOND
     1     1    26 2   
     2     1    28 1   
     3     1    36 1   
     4     2     4 ar  
     5     2     6 ar  
     6     2    37 1   
     7     3    21 1   
     8     3    28 1   
     9     3    32 2   
    10     4    25 ar  
    11     4    28 1   
    12     5     6 ar  
    13     5    29 ar  
    14     5    38 1   
    15     6    39 1   
    16     7    27 1   
    17     7    30 1   
    18     7    57 2   
    19     8    27 2   
    20     8    31 1   
    21     8    40 1   
    22     9    10 ar  
    23     9    22 ar  
    24     9    41 1   
    25    10    16 ar  
    26    10    34 1   
    27    11    12 ar  
    28    11    13 ar  
    29    11    45 1   
    30    12    14 ar  
    31    12    46 1   
    32    13    24 ar  
    33    13    58 1   
    34    14    15 ar  
    35    14    47 1   
    36    15    24 ar  
    37    15    48 1   
    38    16    17 ar  
    39    16    49 1   
    40    17    18 ar  
    41    17    35 1   
    42    18    22 ar  
    43    18    50 1   
    44    19    30 1   
    45    19    31 1   
    46    19    33 2   
    47    20    21 2   
    48    20    26 1   
    49    20    51 1   
    50    21    22 1   
    51    23    24 1   
    52    23    34 1   
    53    23    52 1   
    54    23    53 1   
    55    25    29 ar  
    56    25    54 1   
    57    26    27 1   
    58    30    55 1   
    59    31    56 1   
    60    42    58 1   
    61    43    58 1   
    62    44    58 1   
@<TRIPOS>SUBSTRUCTURE
     1 YSP         1 TEMP              0 ****  ****    0 ROOT
