@<TRIPOS>MOLECULE
YSQ
   63    67     1     0     0
SMALL
No Charge or Current Charge


@<TRIPOS>ATOM
      1 C13        -10.4270   -15.6460    10.2870 cc         1 YSQ      -0.223000
      2 C17        -10.0510   -13.7340     8.8030 ca         1 YSQ      -0.079800
      3 C20        -10.0510   -12.7730     6.1450 ca         1 YSQ      -0.024000
      4 C21        -10.6050   -14.0240     6.4510 ca         1 YSQ      -0.128000
      5 C28         -1.8950    -9.8510    12.4170 cc         1 YSQ       0.151800
      6 C03         -6.5360   -10.8080    15.8860 ca         1 YSQ       0.280000
      7 C04         -7.1410   -10.2310    17.0220 ca         1 YSQ      -0.057000
      8 C05         -8.4880   -10.5070    17.3090 ca         1 YSQ      -0.069000
      9 C06         -9.1990   -11.3570    16.4470 ca         1 YSQ      -0.057000
     10 C07         -8.5520   -11.9120    15.3220 ca         1 YSQ       0.280000
     11 C08         -9.3350   -12.8370    14.3860 c          1 YSQ       0.531100
     12 C12        -10.0010   -14.2910    10.1520 cc         1 YSQ       0.151800
     13 C14        -10.9610   -16.4080     9.2660 cd         1 YSQ       0.093500
     14 C16        -10.6280   -14.5230     7.7780 ca         1 YSQ       0.271000
     15 C18         -9.4900   -12.4690     8.4800 ca         1 YSQ      -0.067000
     16 C19         -9.4980   -11.9930     7.1630 ca         1 YSQ      -0.091500
     17 C27         -3.1100   -10.0360    13.0330 cf         1 YSQ      -0.122900
     18 C29         -1.7690    -9.1940    11.1190 ca         1 YSQ      -0.079800
     19 C30         -0.4660    -8.9530    10.6190 ca         1 YSQ       0.271000
     20 C31         -0.3340    -8.3930     9.3230 ca         1 YSQ      -0.128000
     21 C32         -1.4540    -8.0570     8.5500 ca         1 YSQ      -0.024000
     22 C33         -2.7370    -8.2810     9.0560 ca         1 YSQ      -0.091500
     23 C34         -2.8960    -8.8510    10.3250 ca         1 YSQ      -0.067000
     24 C36          0.5800   -10.0880    12.4890 cd         1 YSQ       0.093500
     25 C37         -0.6800   -10.3100    13.0090 cc         1 YSQ      -0.223000
     26 N09         -8.6120   -13.3350    13.3110 ns         1 YSQ      -0.380000
     27 N10         -9.0710   -14.1510    12.4140 nf         1 YSQ      -0.058100
     28 N15        -11.2470   -15.7760     8.0330 na         1 YSQ      -0.504200
     29 N24         -7.2370   -11.6380    15.0490 nb         1 YSQ      -0.710000
     30 N25         -4.5630   -11.1170    14.4420 ns         1 YSQ      -0.380000
     31 N26         -3.3430   -11.0140    14.0140 nf         1 YSQ      -0.058100
     32 N35          0.7070    -9.2280    11.3730 na         1 YSQ      -0.504200
     33 O01         -4.3780    -9.7630    16.2770 o          1 YSQ      -0.482100
     34 O23        -10.5160   -13.1230    14.5620 o          1 YSQ      -0.482100
     35 H131       -10.3370   -16.1100    11.2650 ha         1 YSQ       0.262000
     36 H201       -10.0480   -12.4120     5.1180 ha         1 YSQ       0.153000
     37 H211       -11.0140   -14.5990     5.6270 ha         1 YSQ       0.151000
     38 H222       -12.7100   -17.2320     7.4780 h1         1 YSQ       0.093867
     39 H223       -12.8540   -15.6800     6.6270 h1         1 YSQ       0.093867
     40 H221       -11.5440   -16.8230     6.1970 h1         1 YSQ       0.093867
     41 H041        -6.5710    -9.5750    17.6750 ha         1 YSQ       0.168000
     42 H051        -8.9700   -10.0700    18.1810 ha         1 YSQ       0.158000
     43 H061       -10.2430   -11.5850    16.6490 ha         1 YSQ       0.168000
     44 H111        -9.3610   -12.4970    11.1220 h4         1 YSQ       0.179000
     45 H141       -11.2890   -17.4390     9.4010 h4         1 YSQ       0.252000
     46 H181        -9.0140   -11.8420     9.2260 ha         1 YSQ       0.124000
     47 H191        -9.0600   -11.0250     6.9290 ha         1 YSQ       0.135000
     48 H271        -4.0030    -9.5610    12.6210 h4         1 YSQ       0.179000
     49 H311         0.6420    -8.2100     8.8850 ha         1 YSQ       0.151000
     50 H321        -1.3270    -7.6250     7.5590 ha         1 YSQ       0.153000
     51 H331        -3.6100    -8.0280     8.4570 ha         1 YSQ       0.135000
     52 H341        -3.9120    -9.0410    10.6540 ha         1 YSQ       0.124000
     53 H361         1.4930   -10.4410    12.9700 h4         1 YSQ       0.252000
     54 H371        -0.7490   -10.8620    13.9420 ha         1 YSQ       0.262000
     55 H382         2.7500    -8.7670    11.7970 h1         1 YSQ       0.093867
     56 H381         2.4180    -9.1750    10.0970 h1         1 YSQ       0.093867
     57 H383         1.9270    -7.5840    10.7600 h1         1 YSQ       0.093867
     58 H091        -7.6330   -13.0730    13.2420 hn         1 YSQ       0.333000
     59 H251        -5.1860   -11.7320    13.9260 hn         1 YSQ       0.333000
     60 C22        -12.1380   -16.4130     7.0230 c3         1 YSQ       0.161600
     61 C11         -9.5550   -13.5670    11.2320 cf         1 YSQ      -0.122900
     62 C02         -5.0680   -10.5010    15.5780 c          1 YSQ       0.531100
     63 C38          2.0250    -8.6550    10.9810 c3         1 YSQ       0.161600
@<TRIPOS>BOND
     1     1    12 1   
     2     1    13 2   
     3     1    35 1   
     4     2    12 1   
     5     2    14 ar  
     6     2    15 ar  
     7     3     4 ar  
     8     3    16 ar  
     9     3    36 1   
    10     4    14 ar  
    11     4    37 1   
    12     5    17 2   
    13     5    18 1   
    14     5    25 1   
    15     6     7 ar  
    16     6    29 ar  
    17     6    62 1   
    18     7     8 ar  
    19     7    41 1   
    20     8     9 ar  
    21     8    42 1   
    22     9    10 ar  
    23     9    43 1   
    24    10    11 1   
    25    10    29 ar  
    26    11    26 1   
    27    11    34 2   
    28    12    61 2   
    29    13    28 1   
    30    13    45 1   
    31    14    28 1   
    32    15    16 ar  
    33    15    46 1   
    34    16    47 1   
    35    17    31 1   
    36    17    48 1   
    37    18    19 ar  
    38    18    23 ar  
    39    19    20 ar  
    40    19    32 1   
    41    20    21 ar  
    42    20    49 1   
    43    21    22 ar  
    44    21    50 1   
    45    22    23 ar  
    46    22    51 1   
    47    23    52 1   
    48    24    25 2   
    49    24    32 1   
    50    24    53 1   
    51    25    54 1   
    52    26    27 2   
    53    26    58 1   
    54    27    61 1   
    55    28    60 1   
    56    30    31 2   
    57    30    59 1   
    58    30    62 1   
    59    32    63 1   
    60    33    62 2   
    61    38    60 1   
    62    39    60 1   
    63    40    60 1   
    64    44    61 1   
    65    55    63 1   
    66    56    63 1   
    67    57    63 1   
@<TRIPOS>SUBSTRUCTURE
     1 YSQ         1 TEMP              0 ****  ****    0 ROOT
