@<TRIPOS>MOLECULE
YSQ
   63    67     1     0     0
SMALL
abcg2


@<TRIPOS>ATOM
      1 C13        -10.8370   -14.1130    10.3130 cc         1 YSQ      -0.223000
      2 C17         -8.9630   -13.5200     8.9220 ca         1 YSQ      -0.079800
      3 C20         -7.8690   -13.4040     6.3460 ca         1 YSQ      -0.024000
      4 C21         -9.1350   -13.9000     6.5080 ca         1 YSQ      -0.128000
      5 C28         -2.6990    -9.7820    12.1010 cc         1 YSQ       0.151800
      6 C03         -6.5330   -11.1810    16.4330 ca         1 YSQ       0.280000
      7 C04         -6.8580   -11.1380    17.7830 ca         1 YSQ      -0.057000
      8 C05         -8.0780   -11.6640    18.1770 ca         1 YSQ      -0.069000
      9 C06         -8.9220   -12.2120    17.2230 ca         1 YSQ      -0.057000
     10 C07         -8.5010   -12.2110    15.9000 ca         1 YSQ       0.280000
     11 C08         -9.3780   -12.7890    14.8320 c          1 YSQ       0.531100
     12 C12         -9.5620   -13.5950    10.2130 cc         1 YSQ       0.151800
     13 C14        -11.5050   -14.5340     9.1810 cd         1 YSQ       0.093500
     14 C16         -9.6980   -13.9660     7.7940 ca         1 YSQ       0.271000
     15 C18         -7.6600   -13.0170     8.7050 ca         1 YSQ      -0.067000
     16 C19         -7.1250   -12.9590     7.4490 ca         1 YSQ      -0.091500
     17 C27         -3.8920   -10.3000    12.7560 cf         1 YSQ      -0.122900
     18 C29         -2.5380    -9.8450    10.6870 ca         1 YSQ      -0.079800
     19 C30         -1.3570    -9.3190    10.1030 ca         1 YSQ       0.271000
     20 C31         -1.1720    -9.3660     8.7100 ca         1 YSQ      -0.128000
     21 C32         -2.1390    -9.9200     7.9150 ca         1 YSQ      -0.024000
     22 C33         -3.3150   -10.4450     8.4730 ca         1 YSQ      -0.091500
     23 C34         -3.5080   -10.4070     9.8260 ca         1 YSQ      -0.067000
     24 C36         -0.5610    -8.7170    12.2270 cd         1 YSQ       0.093500
     25 C37         -1.6890    -9.2110    12.8490 cc         1 YSQ      -0.223000
     26 N09         -8.8000   -12.7610    13.5940 ns         1 YSQ      -0.380000
     27 N10         -9.4520   -13.2060    12.5320 nf         1 YSQ      -0.058100
     28 N15        -10.9660   -14.4630     7.9720 na         1 YSQ      -0.504200
     29 N24         -7.3370   -11.7060    15.5230 nb         1 YSQ      -0.710000
     30 N25         -5.0770   -10.6800    14.6020 ns         1 YSQ      -0.380000
     31 N26         -3.9820   -10.2100    14.0260 nf         1 YSQ      -0.058100
     32 N35         -0.3960    -8.7640    10.9130 na         1 YSQ      -0.504200
     33 O01         -4.4070   -10.1520    16.7130 o          1 YSQ      -0.482100
     34 O23        -10.4800   -13.2290    15.0580 o          1 YSQ      -0.482100
     35 H131       -11.3380   -14.1950    11.2650 ha         1 YSQ       0.262000
     36 H201        -7.4420   -13.3570     5.3530 ha         1 YSQ       0.153000
     37 H211        -9.6840   -14.2370     5.6420 ha         1 YSQ       0.151000
     38 H222       -12.7070   -15.2770     7.1670 h1         1 YSQ       0.093867
     39 H223       -11.8990   -14.1010     6.1230 h1         1 YSQ       0.093867
     40 H221       -11.2260   -15.7370     6.3210 h1         1 YSQ       0.093867
     41 H041        -6.1790   -10.7030    18.5020 ha         1 YSQ       0.168000
     42 H051        -8.3690   -11.6470    19.2180 ha         1 YSQ       0.158000
     43 H061        -9.8790   -12.6300    17.4990 ha         1 YSQ       0.168000
     44 H111        -7.8610   -12.7180    11.3140 h4         1 YSQ       0.179000
     45 H141       -12.5040   -14.9400     9.2450 h4         1 YSQ       0.252000
     46 H181        -7.0620   -12.6690     9.5340 ha         1 YSQ       0.124000
     47 H191        -6.1260   -12.5690     7.3060 ha         1 YSQ       0.135000
     48 H271        -4.6820   -10.7510    12.1610 h4         1 YSQ       0.179000
     49 H311        -0.2780    -8.9690     8.2540 ha         1 YSQ       0.151000
     50 H321        -1.9910    -9.9510     6.8440 ha         1 YSQ       0.153000
     51 H331        -4.0690   -10.8810     7.8330 ha         1 YSQ       0.135000
     52 H341        -4.4230   -10.8180    10.2260 ha         1 YSQ       0.124000
     53 H361         0.2360    -8.2660    12.8000 h4         1 YSQ       0.252000
     54 H371        -1.7570    -9.1370    13.9240 ha         1 YSQ       0.262000
     55 H382         1.4440    -7.8090    11.1270 h1         1 YSQ       0.093867
     56 H381         1.3810    -8.9920     9.8140 h1         1 YSQ       0.093867
     57 H383         0.5810    -7.4110     9.6370 h1         1 YSQ       0.093867
     58 H091        -7.8640   -12.3750    13.5060 hn         1 YSQ       0.333000
     59 H251        -5.8240   -11.0900    14.0490 hn         1 YSQ       0.333000
     60 C22        -11.7440   -14.9220     6.8190 c3         1 YSQ       0.161600
     61 C11         -8.8630   -13.1300    11.4030 cf         1 YSQ      -0.122900
     62 C02         -5.2290   -10.6160    15.9590 c          1 YSQ       0.531100
     63 C38          0.8280    -8.2100    10.3300 c3         1 YSQ       0.161600
@<TRIPOS>BOND
     1     1    12 1   
     2     1    13 2   
     3     1    35 1   
     4     2    12 1   
     5     2    14 ar  
     6     2    15 ar  
     7     3     4 ar  
     8     3    16 ar  
     9     3    36 1   
    10     4    14 ar  
    11     4    37 1   
    12     5    17 2   
    13     5    18 1   
    14     5    25 1   
    15     6     7 ar  
    16     6    29 ar  
    17     6    62 1   
    18     7     8 ar  
    19     7    41 1   
    20     8     9 ar  
    21     8    42 1   
    22     9    10 ar  
    23     9    43 1   
    24    10    11 1   
    25    10    29 ar  
    26    11    26 1   
    27    11    34 2   
    28    12    61 2   
    29    13    28 1   
    30    13    45 1   
    31    14    28 1   
    32    15    16 ar  
    33    15    46 1   
    34    16    47 1   
    35    17    31 1   
    36    17    48 1   
    37    18    19 ar  
    38    18    23 ar  
    39    19    20 ar  
    40    19    32 1   
    41    20    21 ar  
    42    20    49 1   
    43    21    22 ar  
    44    21    50 1   
    45    22    23 ar  
    46    22    51 1   
    47    23    52 1   
    48    24    25 2   
    49    24    32 1   
    50    24    53 1   
    51    25    54 1   
    52    26    27 2   
    53    26    58 1   
    54    27    61 1   
    55    28    60 1   
    56    30    31 2   
    57    30    59 1   
    58    30    62 1   
    59    32    63 1   
    60    33    62 2   
    61    38    60 1   
    62    39    60 1   
    63    40    60 1   
    64    44    61 1   
    65    55    63 1   
    66    56    63 1   
    67    57    63 1   
@<TRIPOS>SUBSTRUCTURE
     1 YSQ         1 TEMP              0 ****  ****    0 ROOT
