@<TRIPOS>MOLECULE
YSR
   66    70     1     0     0
SMALL
No Charge or Current Charge


@<TRIPOS>ATOM
      1 C10        -21.5950   -12.1720     9.8570 cc         1 YSR      -0.162400
      2 C11        -20.9150   -12.6520     8.6570 ca         1 YSR       0.060200
      3 C12        -19.7740   -11.9930     8.1650 ca         1 YSR      -0.009000
      4 C13        -19.1000   -12.4750     7.0260 ca         1 YSR      -0.007000
      5 C14        -17.9190   -11.7830     6.5840 cg         1 YSR       0.367000
      6 C16        -19.5710   -13.6380     6.3700 ca         1 YSR       0.255000
      7 C19        -18.0920   -14.5140     2.6810 c3         1 YSR      -0.349100
      8 C01        -23.1730   -11.6430    15.6760 c3         1 YSR      -0.102100
      9 C02        -23.5550   -11.4980    14.1840 c3         1 YSR       0.190000
     10 C03        -22.7700   -12.4360    13.2530 ca         1 YSR      -0.119300
     11 C04        -22.4610   -12.0520    11.9310 ca         1 YSR      -0.052200
     12 C06        -22.2720   -10.9500     9.9610 cd         1 YSR      -0.045300
     13 C07        -22.4650    -9.9020     8.8970 c          1 YSR       0.717200
     14 C22        -20.6920   -14.3100     6.8850 ca         1 YSR      -0.147000
     15 C23        -21.3620   -13.8220     8.0200 ca         1 YSR      -0.090000
     16 C24        -21.7460   -12.8660    11.0980 ca         1 YSR      -0.083800
     17 C25        -21.2880   -14.1280    11.4910 ca         1 YSR      -0.067000
     18 C26        -21.5970   -14.5570    12.7950 ca         1 YSR      -0.164000
     19 C27        -22.3320   -13.7220    13.6680 ca         1 YSR      -0.112000
     20 C29        -25.8500   -12.6930    14.5320 c5         1 YSR       0.073000
     21 C30        -27.1300   -12.5110    13.6620 c5         1 YSR       0.155300
     22 C31        -28.4740   -12.5780    14.4330 c3         1 YSR       0.162800
     23 C33        -30.1020   -14.1280    15.7050 cy         1 YSR       0.127300
     24 C34        -29.3990   -15.4340    16.2380 cy         1 YSR       0.131500
     25 C36        -28.0930   -14.5660    16.0720 cy         1 YSR       0.127300
     26 C38        -25.6970   -10.7960    13.1080 c          1 YSR       0.695100
     27 N05        -22.8060   -10.8740    11.2760 na         1 YSR      -0.190700
     28 N15        -16.9560   -11.2090     6.2500 n1         1 YSR      -0.507000
     29 N17        -18.9410   -14.1700     5.2450 nu         1 YSR      -0.884100
     30 N28        -25.0110   -11.6300    13.9760 n          1 YSR      -0.446800
     31 N32        -28.8320   -13.9110    14.9490 nq         1 YSR      -0.713600
     32 N35        -29.7580   -15.9460    17.5820 n8         1 YSR      -0.989200
     33 O08        -23.0950    -8.8990     9.2070 o          1 YSR      -0.688500
     34 O09        -22.0150   -10.0690     7.7730 o          1 YSR      -0.688500
     35 O20        -19.1470   -12.2680     3.6250 o          1 YSR      -0.530500
     36 O21        -20.6240   -14.3300     3.4220 o          1 YSR      -0.530500
     37 O37        -26.9880   -11.2150    13.0220 os         1 YSR      -0.419100
     38 O39        -25.2320    -9.8300    12.5220 o          1 YSR      -0.528000
     39 S18        -19.3220   -13.7200     3.6920 s6         1 YSR       1.171100
     40 H121       -19.4130   -11.1050     8.6790 ha         1 YSR       0.150000
     41 H193       -18.1840   -15.5960     2.8240 h1         1 YSR       0.102700
     42 H191       -18.2920   -14.2340     1.6420 h1         1 YSR       0.102700
     43 H192       -17.1130   -14.1500     3.0070 h1         1 YSR       0.102700
     44 H011       -23.6580   -10.8570    16.2660 hc         1 YSR       0.038033
     45 H012       -23.4850   -12.6100    16.0860 hc         1 YSR       0.038033
     46 H013       -22.0890   -11.5440    15.8050 hc         1 YSR       0.038033
     47 H021       -23.2670   -10.4710    13.9200 h1         1 YSR       0.085700
     48 H221       -21.0570   -15.2130     6.4010 ha         1 YSR       0.103000
     49 H231       -22.2300   -14.3500     8.4060 ha         1 YSR       0.116000
     50 H251       -20.7190   -14.7580    10.8120 ha         1 YSR       0.105000
     51 H261       -21.2660   -15.5360    13.1340 ha         1 YSR       0.092000
     52 H271       -22.5560   -14.0890    14.6650 ha         1 YSR       0.089000
     53 H1         -25.4020   -13.6870    14.4050 h1         1 YSR       0.053200
     54 H291       -26.0470   -12.5220    15.5980 h1         1 YSR       0.053200
     55 H2         -27.1470   -13.2720    12.8700 h1         1 YSR       0.090700
     56 H311       -28.4440   -11.8640    15.2670 h1         1 YSR       0.048700
     57 H312       -29.2710   -12.2550    13.7490 h1         1 YSR       0.048700
     58 H332       -30.3110   -13.3850    16.4850 h1         1 YSR       0.048950
     59 H331       -30.9990   -14.3030    15.0990 h1         1 YSR       0.048950
     60 H341       -29.4400   -16.2410    15.4930 h1         1 YSR       0.082700
     61 H361       -27.1970   -15.1330    15.7940 h1         1 YSR       0.048950
     62 H362       -27.8790   -13.9140    16.9290 h1         1 YSR       0.048950
     63 H051       -23.4230   -10.1420    11.6200 hn         1 YSR       0.389000
     64 H171       -19.0690   -15.1720     5.1740 hn         1 YSR       0.473000
     65 H352       -29.0620   -16.6370    17.8900 hn         1 YSR       0.398500
     66 H351       -29.6680   -15.1940    18.2770 hn         1 YSR       0.398500
@<TRIPOS>BOND
     1     1     2 1   
     2     1    12 2   
     3     1    16 1   
     4     2     3 ar  
     5     2    15 ar  
     6     3     4 ar  
     7     3    40 1   
     8     4     5 1   
     9     4     6 ar  
    10     5    28 3   
    11     6    14 ar  
    12     6    29 1   
    13     7    39 1   
    14     7    41 1   
    15     7    42 1   
    16     7    43 1   
    17     8     9 1   
    18     8    44 1   
    19     8    45 1   
    20     8    46 1   
    21     9    10 1   
    22     9    30 1   
    23     9    47 1   
    24    10    11 ar  
    25    10    19 ar  
    26    11    16 ar  
    27    11    27 1   
    28    12    13 1   
    29    12    27 1   
    30    13    33 1   
    31    13    34 1   
    32    14    15 ar  
    33    14    48 1   
    34    15    49 1   
    35    16    17 ar  
    36    17    18 ar  
    37    17    50 1   
    38    18    19 ar  
    39    18    51 1   
    40    19    52 1   
    41    20    21 1   
    42    20    30 1   
    43    20    53 1   
    44    20    54 1   
    45    21    22 1   
    46    21    37 1   
    47    21    55 1   
    48    22    31 1   
    49    22    56 1   
    50    22    57 1   
    51    23    24 1   
    52    23    31 1   
    53    23    58 1   
    54    23    59 1   
    55    24    25 1   
    56    24    32 1   
    57    24    60 1   
    58    25    31 1   
    59    25    61 1   
    60    25    62 1   
    61    26    30 1   
    62    26    37 1   
    63    26    38 2   
    64    27    63 1   
    65    29    39 1   
    66    29    64 1   
    67    32    65 1   
    68    32    66 1   
    69    35    39 2   
    70    36    39 2   
@<TRIPOS>SUBSTRUCTURE
     1 YSR         1 TEMP              0 ****  ****    0 ROOT
