@<TRIPOS>MOLECULE
YSR
   66    70     1     0     0
SMALL
abcg2


@<TRIPOS>ATOM
      1 C10        -21.7200   -12.3120     9.9630 cc         1 YSR      -0.162400
      2 C11        -21.0970   -12.8690     8.7590 ca         1 YSR       0.060200
      3 C12        -20.1930   -12.1350     7.9950 ca         1 YSR      -0.009000
      4 C13        -19.5820   -12.6990     6.8820 ca         1 YSR      -0.007000
      5 C14        -18.6080   -11.9450     6.1650 cg         1 YSR       0.367000
      6 C16        -19.8840   -14.0060     6.4770 ca         1 YSR       0.255000
      7 C19        -18.1950   -13.8950     2.9740 c3         1 YSR      -0.349100
      8 C01        -23.1910   -11.6320    15.8590 c3         1 YSR      -0.102100
      9 C02        -23.3890   -11.4330    14.3630 c3         1 YSR       0.190000
     10 C03        -22.6200   -12.3970    13.4850 ca         1 YSR      -0.119300
     11 C04        -22.4220   -12.0960    12.1300 ca         1 YSR      -0.052200
     12 C06        -22.3720   -11.1070    10.1190 cd         1 YSR      -0.045300
     13 C07        -22.7420   -10.0040     9.1540 c          1 YSR       0.717200
     14 C22        -20.7760   -14.7400     7.2400 ca         1 YSR      -0.147000
     15 C23        -21.3610   -14.1820     8.3680 ca         1 YSR      -0.090000
     16 C24        -21.7410   -12.9580    11.2440 ca         1 YSR      -0.083800
     17 C25        -21.2260   -14.1650    11.7340 ca         1 YSR      -0.067000
     18 C26        -21.4150   -14.4730    13.0640 ca         1 YSR      -0.164000
     19 C27        -22.1060   -13.6020    13.9250 ca         1 YSR      -0.112000
     20 C29        -25.6670   -12.5770    14.3610 c5         1 YSR       0.073000
     21 C30        -26.9330   -12.2010    13.5860 c5         1 YSR       0.155300
     22 C31        -28.2360   -12.4230    14.3290 c3         1 YSR       0.162800
     23 C33        -29.8200   -14.2250    14.9730 cy         1 YSR       0.127300
     24 C34        -29.1540   -15.3910    15.7150 cy         1 YSR       0.131500
     25 C36        -27.8450   -14.5910    15.5370 cy         1 YSR       0.127300
     26 C38        -25.4820   -10.4520    13.4770 c          1 YSR       0.695100
     27 N05        -22.7840   -10.9960    11.4160 na         1 YSR      -0.190700
     28 N15        -17.8060   -11.3290     5.6130 n1         1 YSR      -0.507000
     29 N17        -19.2320   -14.5650     5.3580 nu         1 YSR      -0.884100
     30 N28        -24.7970   -11.4810    14.0080 n          1 YSR      -0.446800
     31 N32        -28.5030   -13.8290    14.4710 nq         1 YSR      -0.713600
     32 N35        -29.6800   -15.7300    17.0070 n8         1 YSR      -0.989200
     33 O08        -23.3230    -9.0310     9.6730 o          1 YSR      -0.688500
     34 O09        -22.4470   -10.1770     7.9600 o          1 YSR      -0.688500
     35 O20        -20.4360   -12.8670     3.9400 o          1 YSR      -0.530500
     36 O21        -20.4200   -15.2570     3.1850 o          1 YSR      -0.530500
     37 O37        -26.7670   -10.8000    13.3160 os         1 YSR      -0.419100
     38 O39        -25.0660    -9.3590    13.1590 o          1 YSR      -0.528000
     39 S18        -19.7390   -14.1340     3.8090 s6         1 YSR       1.171100
     40 H121       -19.9370   -11.1260     8.2850 ha         1 YSR       0.150000
     41 H193       -17.6200   -14.8170     3.0200 h1         1 YSR       0.102700
     42 H191       -18.4180   -13.6500     1.9360 h1         1 YSR       0.102700
     43 H192       -17.6480   -13.0820     3.4430 h1         1 YSR       0.102700
     44 H011       -23.7510   -10.8750    16.4080 hc         1 YSR       0.038033
     45 H012       -23.5220   -12.6110    16.2080 hc         1 YSR       0.038033
     46 H013       -22.1380   -11.5250    16.1160 hc         1 YSR       0.038033
     47 H021       -23.0540   -10.4190    14.1300 h1         1 YSR       0.085700
     48 H221       -21.0200   -15.7540     6.9500 ha         1 YSR       0.103000
     49 H231       -22.0620   -14.7780     8.9390 ha         1 YSR       0.116000
     50 H251       -20.6830   -14.8420    11.0880 ha         1 YSR       0.105000
     51 H261       -21.0230   -15.4010    13.4610 ha         1 YSR       0.092000
     52 H271       -22.2260   -13.8920    14.9610 ha         1 YSR       0.089000
     53 H1         -25.2600   -13.5380    14.0440 h1         1 YSR       0.053200
     54 H291       -25.8360   -12.6130    15.4420 h1         1 YSR       0.053200
     55 H2         -26.9680   -12.7280    12.6290 h1         1 YSR       0.090700
     56 H311       -28.2020   -11.8950    15.2970 h1         1 YSR       0.048700
     57 H312       -29.0490   -11.9810    13.7470 h1         1 YSR       0.048700
     58 H332       -30.2470   -13.5020    15.6840 h1         1 YSR       0.048950
     59 H331       -30.5690   -14.4450    14.2080 h1         1 YSR       0.048950
     60 H341       -29.1420   -16.2900    15.0950 h1         1 YSR       0.082700
     61 H361       -26.9370   -15.1270    15.2470 h1         1 YSR       0.048950
     62 H362       -27.6280   -13.9860    16.4310 h1         1 YSR       0.048950
     63 H051       -23.3040   -10.1940    11.7410 hn         1 YSR       0.389000
     64 H171       -19.0800   -15.5670     5.4260 hn         1 YSR       0.473000
     65 H352       -29.1410   -16.4820    17.4190 hn         1 YSR       0.398500
     66 H351       -29.5980   -14.9410    17.6370 hn         1 YSR       0.398500
@<TRIPOS>BOND
     1     1     2 1   
     2     1    12 2   
     3     1    16 1   
     4     2     3 ar  
     5     2    15 ar  
     6     3     4 ar  
     7     3    40 1   
     8     4     5 1   
     9     4     6 ar  
    10     5    28 3   
    11     6    14 ar  
    12     6    29 1   
    13     7    39 1   
    14     7    41 1   
    15     7    42 1   
    16     7    43 1   
    17     8     9 1   
    18     8    44 1   
    19     8    45 1   
    20     8    46 1   
    21     9    10 1   
    22     9    30 1   
    23     9    47 1   
    24    10    11 ar  
    25    10    19 ar  
    26    11    16 ar  
    27    11    27 1   
    28    12    13 1   
    29    12    27 1   
    30    13    33 1   
    31    13    34 1   
    32    14    15 ar  
    33    14    48 1   
    34    15    49 1   
    35    16    17 ar  
    36    17    18 ar  
    37    17    50 1   
    38    18    19 ar  
    39    18    51 1   
    40    19    52 1   
    41    20    21 1   
    42    20    30 1   
    43    20    53 1   
    44    20    54 1   
    45    21    22 1   
    46    21    37 1   
    47    21    55 1   
    48    22    31 1   
    49    22    56 1   
    50    22    57 1   
    51    23    24 1   
    52    23    31 1   
    53    23    58 1   
    54    23    59 1   
    55    24    25 1   
    56    24    32 1   
    57    24    60 1   
    58    25    31 1   
    59    25    61 1   
    60    25    62 1   
    61    26    30 1   
    62    26    37 1   
    63    26    38 2   
    64    27    63 1   
    65    29    39 1   
    66    29    64 1   
    67    32    65 1   
    68    32    66 1   
    69    35    39 2   
    70    36    39 2   
@<TRIPOS>SUBSTRUCTURE
     1 YSR         1 TEMP              0 ****  ****    0 ROOT
