@<TRIPOS>MOLECULE
YSS
   59    59     1     0     0
SMALL
No Charge or Current Charge


@<TRIPOS>ATOM
      1 C10         -5.8520   -57.8200   541.3960 c5         1 YSS      -0.190400
      2 C13         -7.5930   -55.9570   543.6020 c2         1 YSS      -0.162200
      3 C15         -8.5260   -54.4980   545.4910 c3         1 YSS       0.226200
      4 C20         -4.9820   -55.1270   549.0310 c3         1 YSS      -0.096100
      5 C21         -9.8980   -53.7940   545.5980 c3         1 YSS      -0.117100
      6 C01         -2.3760   -58.9620   547.2940 c          1 YSS       0.716000
      7 C02         -3.7890   -59.5670   547.3770 c3         1 YSS      -0.209400
      8 C03         -4.8190   -58.6090   546.7250 c3         1 YSS      -0.051400
      9 C04         -6.2870   -59.0880   546.8280 c3         1 YSS      -0.058200
     10 C05         -6.5650   -60.3440   546.0160 c2         1 YSS      -0.160200
     11 C07         -8.0310   -59.3130   544.1840 c3         1 YSS      -0.027200
     12 C08         -7.0970   -58.4010   543.3500 c5         1 YSS      -0.093700
     13 C09         -6.3400   -59.0750   542.1530 c5         1 YSS       0.175300
     14 C11         -7.1290   -56.9920   541.3050 c          1 YSS       0.593100
     15 C12         -7.8000   -57.1630   542.6840 c5         1 YSS      -0.141500
     16 C14         -8.5870   -55.5840   544.4300 c2         1 YSS      -0.225200
     17 C16         -8.0740   -55.1370   546.8340 c3         1 YSS      -0.107400
     18 C18         -7.5470   -54.8720   549.3730 c3         1 YSS      -0.070400
     19 C19         -6.3160   -55.8120   549.3920 c3         1 YSS      -0.076400
     20 O1          -1.7050   -59.1990   546.3010 o          1 YSS      -0.741000
     21 O2          -2.0040   -58.2370   548.2040 o          1 YSS      -0.741000
     22 O3          -7.1940   -59.8650   541.3280 oh         1 YSS      -0.672000
     23 O4          -7.6850   -56.6030   540.2840 o          1 YSS      -0.521100
     24 O5          -7.5680   -53.5180   545.0960 oh         1 YSS      -0.648000
     25 H1          -5.4280   -58.0240   540.4070 hc         1 YSS       0.082200
     26 H2          -5.1280   -57.2990   542.0330 hc         1 YSS       0.082200
     27 H3          -6.6330   -55.4350   543.6280 ha         1 YSS       0.203000
     28 H4          -7.0250   -53.4770   547.7910 hc         1 YSS       0.029700
     29 H5          -4.1490   -55.8300   549.1510 hc         1 YSS       0.042700
     30 H6          -4.9840   -54.7820   547.9910 hc         1 YSS       0.042700
     31 H7          -4.7980   -54.2650   549.6840 hc         1 YSS       0.042700
     32 H8          -9.8580   -52.9270   546.2680 hc         1 YSS       0.036033
     33 H9         -10.2260   -53.4390   544.6140 hc         1 YSS       0.036033
     34 H10        -10.6600   -54.4840   545.9790 hc         1 YSS       0.036033
     35 H11         -4.0990   -59.6740   548.4240 hc         1 YSS       0.015200
     36 H12         -3.8360   -60.5010   546.8040 hc         1 YSS       0.015200
     37 H13         -4.5610   -58.4610   545.6690 hc         1 YSS       0.043200
     38 H14         -4.7400   -57.6260   547.2050 hc         1 YSS       0.043200
     39 H15         -6.9350   -58.2650   546.5070 hc         1 YSS       0.027700
     40 H16         -6.5350   -59.2660   547.8820 hc         1 YSS       0.027700
     41 H17         -6.1040   -61.2430   546.4290 ha         1 YSS       0.167000
     42 H18         -7.4210   -61.4130   544.4160 ha         1 YSS       0.149000
     43 H19         -8.5580   -58.7000   544.9250 hc         1 YSS       0.041700
     44 H20         -8.8240   -59.7280   543.5490 hc         1 YSS       0.041700
     45 H21         -6.3390   -58.0470   544.0590 hc         1 YSS       0.086700
     46 H22         -5.4950   -59.6820   542.5110 h1         1 YSS       0.054700
     47 H23         -8.8670   -57.3300   542.5020 hc         1 YSS       0.074700
     48 H24         -9.5330   -56.1270   544.4210 ha         1 YSS       0.160000
     49 H25         -8.8190   -55.8870   547.1300 hc         1 YSS       0.057200
     50 H26         -7.4150   -54.1050   550.1460 hc         1 YSS       0.025700
     51 H27         -8.4300   -55.4530   549.6670 hc         1 YSS       0.025700
     52 H28         -6.2240   -56.2410   550.3970 hc         1 YSS       0.037700
     53 H29         -6.4850   -56.6580   548.7150 hc         1 YSS       0.037700
     54 H31         -7.5200   -60.6010   541.8910 ho         1 YSS       0.444000
     55 H32         -7.5370   -52.8570   545.8180 ho         1 YSS       0.441000
     56 H33         -8.7370   -53.5470   548.1710 hc         1 YSS       0.029700
     57 H34         -7.1450   -55.6900   546.6500 hc         1 YSS       0.057200
     58 C17         -7.8450   -54.1660   548.0260 c3         1 YSS      -0.069400
     59 C06         -7.3000   -60.4390   544.8930 c2         1 YSS      -0.272200
@<TRIPOS>BOND
     1     1    13 1   
     2     1    14 1   
     3     1    25 1   
     4     1    26 1   
     5     2    15 1   
     6     2    16 2   
     7     2    27 1   
     8     3     5 1   
     9     3    16 1   
    10     3    17 1   
    11     3    24 1   
    12     4    19 1   
    13     4    29 1   
    14     4    30 1   
    15     4    31 1   
    16     5    32 1   
    17     5    33 1   
    18     5    34 1   
    19     6     7 1   
    20     6    20 1   
    21     6    21 1   
    22     7     8 1   
    23     7    35 1   
    24     7    36 1   
    25     8     9 1   
    26     8    37 1   
    27     8    38 1   
    28     9    10 1   
    29     9    39 1   
    30     9    40 1   
    31    10    41 1   
    32    10    59 2   
    33    11    12 1   
    34    11    43 1   
    35    11    44 1   
    36    11    59 1   
    37    12    13 1   
    38    12    15 1   
    39    12    45 1   
    40    13    22 1   
    41    13    46 1   
    42    14    15 1   
    43    14    23 2   
    44    15    47 1   
    45    16    48 1   
    46    17    49 1   
    47    17    57 1   
    48    17    58 1   
    49    18    19 1   
    50    18    50 1   
    51    18    51 1   
    52    18    58 1   
    53    19    52 1   
    54    19    53 1   
    55    22    54 1   
    56    24    55 1   
    57    28    58 1   
    58    42    59 1   
    59    56    58 1   
@<TRIPOS>SUBSTRUCTURE
     1 YSS         1 TEMP              0 ****  ****    0 ROOT
