@<TRIPOS>MOLECULE
YSS
   59    59     1     0     0
SMALL
bcc


@<TRIPOS>ATOM
      1 C10         -6.2650   -58.2270   540.9830 c5         1 YSS      -0.190400
      2 C13         -7.4520   -56.0260   543.6680 c2         1 YSS      -0.112200
      3 C15         -8.2220   -54.5260   545.5510 c3         1 YSS       0.203000
      4 C20         -5.3000   -55.2050   549.1820 c3         1 YSS      -0.096100
      5 C21         -9.4070   -53.5620   545.4660 c3         1 YSS      -0.117100
      6 C01         -2.3820   -58.3710   546.9390 c          1 YSS       0.926600
      7 C02         -3.6860   -59.1850   547.0570 c3         1 YSS      -0.209400
      8 C03         -4.9680   -58.3980   546.8440 c3         1 YSS      -0.051400
      9 C04         -6.2370   -59.2260   547.0710 c3         1 YSS      -0.058200
     10 C05         -6.3730   -60.3710   546.1110 c2         1 YSS      -0.110200
     11 C07         -7.7370   -59.1690   544.3660 c3         1 YSS      -0.027200
     12 C08         -6.9570   -58.4780   543.2530 c5         1 YSS      -0.093700
     13 C09         -6.7150   -59.2910   541.9690 c5         1 YSS       0.152100
     14 C11         -7.0490   -56.9910   541.3660 c          1 YSS       0.593100
     15 C12         -7.6370   -57.1930   542.7540 c5         1 YSS      -0.141500
     16 C14         -8.3860   -55.5980   544.5090 c2         1 YSS      -0.175200
     17 C16         -8.1580   -55.2340   546.9210 c3         1 YSS      -0.107400
     18 C18         -7.8420   -55.0750   549.4470 c3         1 YSS      -0.070400
     19 C19         -6.5900   -55.9490   549.5060 c3         1 YSS      -0.076400
     20 O1          -1.3450   -59.0230   546.6970 o          1 YSS      -0.846300
     21 O2          -2.4560   -57.1380   547.1210 o          1 YSS      -0.846300
     22 O3          -7.9020   -59.8550   541.4530 oh         1 YSS      -0.609800
     23 O4          -7.1690   -55.9920   540.7000 o          1 YSS      -0.521100
     24 O5          -7.0110   -53.8440   545.2870 oh         1 YSS      -0.585800
     25 H1          -6.3850   -58.5010   539.9330 hc         1 YSS       0.082200
     26 H2          -5.2040   -58.0020   541.1400 hc         1 YSS       0.082200
     27 H3          -6.4630   -55.5780   543.6760 ha         1 YSS       0.153000
     28 H4          -7.2340   -53.6020   548.0010 hc         1 YSS       0.029700
     29 H5          -4.4310   -55.8540   549.2980 hc         1 YSS       0.042700
     30 H6          -5.2920   -54.8380   548.1550 hc         1 YSS       0.042700
     31 H7          -5.1640   -54.3450   549.8410 hc         1 YSS       0.042700
     32 H8          -9.3070   -52.7410   546.1780 hc         1 YSS       0.036033
     33 H9          -9.4810   -53.1300   544.4670 hc         1 YSS       0.036033
     34 H10        -10.3460   -54.0740   545.6830 hc         1 YSS       0.036033
     35 H11         -3.7080   -59.6320   548.0600 hc         1 YSS       0.015200
     36 H12         -3.6380   -60.0330   546.3680 hc         1 YSS       0.015200
     37 H13         -4.9940   -57.9870   545.8300 hc         1 YSS       0.043200
     38 H14         -4.9820   -57.5410   547.5190 hc         1 YSS       0.043200
     39 H15         -7.1040   -58.5650   547.0010 hc         1 YSS       0.027700
     40 H16         -6.2290   -59.6140   548.0950 hc         1 YSS       0.027700
     41 H17         -5.8700   -61.2940   546.3880 ha         1 YSS       0.117000
     42 H18         -7.0090   -61.2510   544.3400 ha         1 YSS       0.099000
     43 H19         -7.9340   -58.4260   545.1420 hc         1 YSS       0.041700
     44 H20         -8.7200   -59.4730   543.9890 hc         1 YSS       0.041700
     45 H21         -5.9670   -58.2130   543.6470 hc         1 YSS       0.086700
     46 H22         -5.9470   -60.0570   542.1240 h1         1 YSS       0.054700
     47 H23         -8.7090   -57.3920   542.6180 hc         1 YSS       0.074700
     48 H24         -9.3620   -56.0770   544.5020 ha         1 YSS       0.110000
     49 H25         -9.0400   -55.8740   547.0340 hc         1 YSS       0.057200
     50 H26         -7.8030   -54.3460   550.2620 hc         1 YSS       0.025700
     51 H27         -8.7190   -55.7010   549.6410 hc         1 YSS       0.025700
     52 H28         -6.5180   -56.3790   550.5090 hc         1 YSS       0.037700
     53 H29         -6.6960   -56.8010   548.8300 hc         1 YSS       0.037700
     54 H31         -8.1960   -60.5590   542.0390 ho         1 YSS       0.405000
     55 H32         -6.9330   -53.1080   545.9020 ho         1 YSS       0.402000
     56 H33         -8.9600   -53.7170   548.2290 hc         1 YSS       0.029700
     57 H34         -7.2970   -55.9080   546.8870 hc         1 YSS       0.057200
     58 C17         -8.0510   -54.3180   548.1350 c3         1 YSS      -0.069400
     59 C06         -7.0190   -60.3480   544.9450 c2         1 YSS      -0.222200
@<TRIPOS>BOND
     1     1    13 1   
     2     1    14 1   
     3     1    25 1   
     4     1    26 1   
     5     2    15 1   
     6     2    16 2   
     7     2    27 1   
     8     3     5 1   
     9     3    16 1   
    10     3    17 1   
    11     3    24 1   
    12     4    19 1   
    13     4    29 1   
    14     4    30 1   
    15     4    31 1   
    16     5    32 1   
    17     5    33 1   
    18     5    34 1   
    19     6     7 1   
    20     6    20 1   
    21     6    21 1   
    22     7     8 1   
    23     7    35 1   
    24     7    36 1   
    25     8     9 1   
    26     8    37 1   
    27     8    38 1   
    28     9    10 1   
    29     9    39 1   
    30     9    40 1   
    31    10    41 1   
    32    10    59 2   
    33    11    12 1   
    34    11    43 1   
    35    11    44 1   
    36    11    59 1   
    37    12    13 1   
    38    12    15 1   
    39    12    45 1   
    40    13    22 1   
    41    13    46 1   
    42    14    15 1   
    43    14    23 2   
    44    15    47 1   
    45    16    48 1   
    46    17    49 1   
    47    17    57 1   
    48    17    58 1   
    49    18    19 1   
    50    18    50 1   
    51    18    51 1   
    52    18    58 1   
    53    19    52 1   
    54    19    53 1   
    55    22    54 1   
    56    24    55 1   
    57    28    58 1   
    58    42    59 1   
    59    56    58 1   
@<TRIPOS>SUBSTRUCTURE
     1 YSS         1 TEMP              0 ****  ****    0 ROOT
