@<TRIPOS>MOLECULE
YSU
   55    57     1     0     0
SMALL
No Charge or Current Charge


@<TRIPOS>ATOM
      1 N            2.0340    -0.5820     3.2100 n8         1 YSU      -0.989200
      2 CA           1.5770    -0.9340     1.8160 c3         1 YSU       0.097500
      3 CB           2.6050    -0.4550     0.7520 c3         1 YSU      -0.017100
      4 CG           2.9000     1.0520     0.6890 ca         1 YSU      -0.113300
      5 CD2          2.0380     2.0260     1.2420 ca         1 YSU      -0.062500
      6 CE2          2.3540     3.3930     1.1440 ca         1 YSU      -0.172500
      7 CZ           3.5200     3.8030     0.4870 ca         1 YSU       0.138100
      8 OH           3.8120     5.1300     0.3940 oh         1 YSU      -0.531100
      9 CE1          4.3790     2.8460    -0.0750 ca         1 YSU      -0.172500
     10 CD1          4.0690     1.4780     0.0250 ca         1 YSU      -0.062500
     11 C            1.2440    -2.4540     1.5990 c          1 YSU       0.598100
     12 O            2.0470    -3.3450     1.8350 o          1 YSU      -0.536100
     13 NAT         -0.0180    -2.7060     1.1780 ns         1 YSU      -0.611300
     14 SBI         -0.7000    -4.1810     0.8740 s6         1 YSU       1.441500
     15 OAD         -0.0760    -4.7360    -0.3320 o          1 YSU      -0.536500
     16 OAE         -0.7340    -4.9450     2.1250 o          1 YSU      -0.536500
     17 O5          -2.2180    -3.6640     0.5190 os         1 YSU      -0.561700
     18 C5          -2.4370    -3.0320    -0.7630 c3         1 YSU       0.200600
     19 C4          -2.8630    -1.5610    -0.5250 c5         1 YSU       0.154300
     20 O4          -1.7660    -0.7900     0.0240 os         1 YSU      -0.463000
     21 C1          -1.9890     0.6030    -0.2990 c5         1 YSU       0.334700
     22 C2          -3.2140     0.6740    -1.2890 c5         1 YSU       0.114300
     23 O2          -4.4620     0.9470    -0.6320 oh         1 YSU      -0.716000
     24 C3          -3.2390    -0.7860    -1.8250 c5         1 YSU       0.098300
     25 O3          -4.5420    -1.1280    -2.3390 oh         1 YSU      -0.710000
     26 N1          -0.8320     1.2630    -0.9810 n          1 YSU      -0.329000
     27 C6          -0.7070     2.6500    -0.8420 cc         1 YSU       0.006600
     28 C7           0.3260     3.3020    -1.4720 cd         1 YSU      -0.358200
     29 C8           1.3140     2.5890    -2.2800 c          1 YSU       0.586200
     30 O1           2.2410     3.1250    -2.8590 o          1 YSU      -0.513000
     31 N3           1.0900     1.2520    -2.3430 ns         1 YSU      -0.473500
     32 C9           0.0930     0.5290    -1.7680 c          1 YSU       0.619000
     33 O6           0.0380    -0.6700    -1.9770 o          1 YSU      -0.580000
     34 H1           1.3360    -0.8990     3.8940 hn         1 YSU       0.410000
     35 H2           2.8630    -1.1440     3.4430 hn         1 YSU       0.410000
     36 H4           0.6380    -0.3950     1.6330 h1         1 YSU       0.072700
     37 H5           3.5430    -1.0000     0.9150 hc         1 YSU       0.056200
     38 H6           2.2500    -0.7790    -0.2340 hc         1 YSU       0.056200
     39 H7           1.1210     1.7410     1.7490 ha         1 YSU       0.109000
     40 H8           1.6850     4.1340     1.5740 ha         1 YSU       0.127000
     41 H9           4.6520     5.2290    -0.1040 ho         1 YSU       0.463000
     42 H10          5.2860     3.1530    -0.5910 ha         1 YSU       0.127000
     43 H11          4.7410     0.7460    -0.4170 ha         1 YSU       0.109000
     44 H12         -0.6500    -1.9540     0.9550 hn         1 YSU       0.346500
     45 H13         -1.5510    -3.0450    -1.4130 h1         1 YSU       0.078700
     46 H14         -3.2470    -3.5440    -1.2990 h1         1 YSU       0.078700
     47 H15         -3.6980    -1.5510     0.1890 h1         1 YSU       0.101700
     48 H16         -2.1930     1.1750     0.6150 h2         1 YSU       0.094700
     49 H17         -3.0420     1.3940    -2.1030 h1         1 YSU       0.078700
     50 H18         -5.0880     0.3100    -1.0630 ho         1 YSU       0.534000
     51 H19         -2.4640    -0.9330    -2.5920 h1         1 YSU       0.083700
     52 H20         -4.4910    -1.1180    -3.3270 ho         1 YSU       0.523000
     53 H21         -1.4740     3.1150    -0.2250 h4         1 YSU       0.218000
     54 H22          0.4740     4.3730    -1.3990 ha         1 YSU       0.235000
     55 H23          1.7420     0.7250    -2.9010 hn         1 YSU       0.343500
@<TRIPOS>BOND
     1     1     2 1   
     2     1    34 1   
     3     1    35 1   
     4     2     3 1   
     5     2    11 1   
     6     2    36 1   
     7     3     4 1   
     8     3    37 1   
     9     3    38 1   
    10     4     5 ar  
    11     4    10 ar  
    12     5     6 ar  
    13     5    39 1   
    14     6     7 ar  
    15     6    40 1   
    16     7     8 1   
    17     7     9 ar  
    18     8    41 1   
    19     9    10 ar  
    20     9    42 1   
    21    10    43 1   
    22    11    12 2   
    23    11    13 1   
    24    13    14 1   
    25    13    44 1   
    26    14    15 2   
    27    14    16 2   
    28    14    17 1   
    29    17    18 1   
    30    18    19 1   
    31    18    45 1   
    32    18    46 1   
    33    19    20 1   
    34    19    24 1   
    35    19    47 1   
    36    20    21 1   
    37    21    22 1   
    38    21    26 1   
    39    21    48 1   
    40    22    23 1   
    41    22    24 1   
    42    22    49 1   
    43    23    50 1   
    44    24    25 1   
    45    24    51 1   
    46    25    52 1   
    47    26    27 1   
    48    26    32 1   
    49    27    28 2   
    50    27    53 1   
    51    28    29 1   
    52    28    54 1   
    53    29    30 2   
    54    29    31 1   
    55    31    32 1   
    56    31    55 1   
    57    32    33 2   
@<TRIPOS>SUBSTRUCTURE
     1 YSU         1 TEMP              0 ****  ****    0 ROOT
