@<TRIPOS>MOLECULE
YSU
   55    57     1     0     0
SMALL
abcg2


@<TRIPOS>ATOM
      1 N            0.9140     0.4780     2.1200 n8         1 YSU      -0.989200
      2 CA           1.3600    -0.3660     1.0470 c3         1 YSU       0.097500
      3 CB           2.8980    -0.4250     1.0040 c3         1 YSU      -0.017100
      4 CG           3.4970     0.9350     0.7850 ca         1 YSU      -0.113300
      5 CD2          3.5250     1.5060    -0.4840 ca         1 YSU      -0.062500
      6 CE2          4.0380     2.7740    -0.7000 ca         1 YSU      -0.172500
      7 CZ           4.5470     3.5060     0.3710 ca         1 YSU       0.138100
      8 OH           5.0420     4.7360     0.1180 oh         1 YSU      -0.531100
      9 CE1          4.5300     2.9490     1.6460 ca         1 YSU      -0.172500
     10 CD1          4.0050     1.6790     1.8420 ca         1 YSU      -0.062500
     11 C            0.8010    -1.7840     1.1300 c          1 YSU       0.598100
     12 O            0.3790    -2.2860     2.1410 o          1 YSU      -0.536100
     13 NAT          0.8320    -2.4730    -0.0680 ns         1 YSU      -0.611300
     14 SBI          0.1660    -3.9790    -0.2750 s6         1 YSU       1.441500
     15 OAD          0.3150    -4.2590    -1.6820 o          1 YSU      -0.536500
     16 OAE          0.6510    -4.8920     0.7200 o          1 YSU      -0.536500
     17 O5          -1.3610    -3.7680     0.0940 os         1 YSU      -0.561700
     18 C5          -2.2220    -3.0030    -0.7800 c3         1 YSU       0.200600
     19 C4          -2.7840    -1.8010    -0.0640 c5         1 YSU       0.154300
     20 O4          -1.7750    -0.8340     0.1550 os         1 YSU      -0.463000
     21 C1          -2.2450     0.4680    -0.0610 c5         1 YSU       0.334700
     22 C2          -3.6920     0.3710    -0.5710 c5         1 YSU       0.114300
     23 O2          -4.5350     0.7350     0.4880 oh         1 YSU      -0.716000
     24 C3          -3.8650    -1.1230    -0.9120 c5         1 YSU       0.098300
     25 O3          -5.1250    -1.6190    -0.5490 oh         1 YSU      -0.710000
     26 N1          -1.3010     1.1880    -0.9070 n          1 YSU      -0.329000
     27 C6          -0.6220     2.2630    -0.3950 cc         1 YSU       0.006600
     28 C7           0.3140     2.9380    -1.0770 cd         1 YSU      -0.358200
     29 C8           0.6560     2.5250    -2.4160 c          1 YSU       0.586200
     30 O1           1.4830     3.0450    -3.1400 o          1 YSU      -0.513000
     31 N3          -0.0630     1.4190    -2.8500 ns         1 YSU      -0.473500
     32 C9          -1.0410     0.7330    -2.1830 c          1 YSU       0.619000
     33 O6          -1.6250    -0.2060    -2.6800 o          1 YSU      -0.580000
     34 H1          -0.0940     0.4530     2.2010 hn         1 YSU       0.410000
     35 H2           1.2740     0.1410     3.0050 hn         1 YSU       0.410000
     36 H4           1.0260     0.0720     0.1000 h1         1 YSU       0.072700
     37 H5           3.2620    -0.8540     1.9420 hc         1 YSU       0.056200
     38 H6           3.2130    -1.1040     0.2090 hc         1 YSU       0.056200
     39 H7           3.1400     0.9500    -1.3330 ha         1 YSU       0.109000
     40 H8           4.0420     3.1990    -1.6950 ha         1 YSU       0.127000
     41 H9           5.3490     5.1460     0.9340 ho         1 YSU       0.463000
     42 H10          4.9240     3.5040     2.4910 ha         1 YSU       0.127000
     43 H11          3.9980     1.2660     2.8430 ha         1 YSU       0.109000
     44 H12          1.1590    -2.0220    -0.9140 hn         1 YSU       0.346500
     45 H13         -1.6990    -2.6960    -1.6870 h1         1 YSU       0.078700
     46 H14         -3.0360    -3.6700    -1.0630 h1         1 YSU       0.078700
     47 H15         -3.2200    -2.1070     0.8960 h1         1 YSU       0.101700
     48 H16         -2.2580     1.0270     0.8790 h2         1 YSU       0.094700
     49 H17         -3.8580     1.0110    -1.4440 h1         1 YSU       0.078700
     50 H18         -5.2900     0.1310     0.4710 ho         1 YSU       0.534000
     51 H19         -3.6740    -1.2760    -1.9750 h1         1 YSU       0.083700
     52 H20         -5.7100    -1.5800    -1.3130 ho         1 YSU       0.523000
     53 H21         -0.8870     2.5410     0.6140 h4         1 YSU       0.218000
     54 H22          0.8280     3.7720    -0.6270 ha         1 YSU       0.235000
     55 H23          0.1300     1.0880    -3.7880 hn         1 YSU       0.343500
@<TRIPOS>BOND
     1     1     2 1   
     2     1    34 1   
     3     1    35 1   
     4     2     3 1   
     5     2    11 1   
     6     2    36 1   
     7     3     4 1   
     8     3    37 1   
     9     3    38 1   
    10     4     5 ar  
    11     4    10 ar  
    12     5     6 ar  
    13     5    39 1   
    14     6     7 ar  
    15     6    40 1   
    16     7     8 1   
    17     7     9 ar  
    18     8    41 1   
    19     9    10 ar  
    20     9    42 1   
    21    10    43 1   
    22    11    12 2   
    23    11    13 1   
    24    13    14 1   
    25    13    44 1   
    26    14    15 2   
    27    14    16 2   
    28    14    17 1   
    29    17    18 1   
    30    18    19 1   
    31    18    45 1   
    32    18    46 1   
    33    19    20 1   
    34    19    24 1   
    35    19    47 1   
    36    20    21 1   
    37    21    22 1   
    38    21    26 1   
    39    21    48 1   
    40    22    23 1   
    41    22    24 1   
    42    22    49 1   
    43    23    50 1   
    44    24    25 1   
    45    24    51 1   
    46    25    52 1   
    47    26    27 1   
    48    26    32 1   
    49    27    28 2   
    50    27    53 1   
    51    28    29 1   
    52    28    54 1   
    53    29    30 2   
    54    29    31 1   
    55    31    32 1   
    56    31    55 1   
    57    32    33 2   
@<TRIPOS>SUBSTRUCTURE
     1 YSU         1 TEMP              0 ****  ****    0 ROOT
