@<TRIPOS>MOLECULE
YSV
   74    76     1     0     0
SMALL
No Charge or Current Charge


@<TRIPOS>ATOM
      1 O3          -9.0310     0.3050     0.0480 oh         1 YSV      -0.660000
      2 C25         -8.3290     1.5080    -0.2660 c3         1 YSV       0.183000
      3 C27         -9.1520     2.2580    -1.3390 c3         1 YSV      -0.100100
      4 C26         -8.2400     2.3590     1.0240 c3         1 YSV      -0.100100
      5 C24         -6.9240     1.1380    -0.8310 c3         1 YSV      -0.102400
      6 C23         -5.9900     0.3400     0.1180 c3         1 YSV      -0.071400
      7 C22         -4.6430    -0.0390    -0.5530 c3         1 YSV      -0.078400
      8 C20         -3.5710    -0.6830     0.3850 c3         1 YSV      -0.046700
      9 C21         -4.0640    -2.0510     0.9240 c3         1 YSV      -0.087100
     10 C17         -2.1610    -0.7780    -0.3610 c5         1 YSV      -0.053700
     11 C16         -1.5990     0.6400    -0.7680 c5         1 YSV      -0.077400
     12 C13         -0.9120    -1.4210     0.4110 c5         1 YSV      -0.035000
     13 C18         -0.6640    -0.8590     1.8790 c3         1 YSV      -0.079100
     14 C14          0.1770    -0.9970    -0.6350 c5         1 YSV      -0.035500
     15 C15         -0.0440     0.5360    -0.7190 c5         1 YSV      -0.071400
     16 C12         -0.9080    -2.9860     0.4790 c6         1 YSV      -0.062400
     17 C11          0.4700    -3.5570     0.9160 c6         1 YSV      -0.071400
     18 C9           1.6460    -3.0260     0.0570 c6         1 YSV      -0.041200
     19 C8           1.5640    -1.5150    -0.1900 c2         1 YSV      -0.079400
     20 C7           2.6090    -0.6400    -0.1420 ce         1 YSV      -0.190000
     21 C6           4.0110    -0.9870     0.1740 ce         1 YSV      -0.161000
     22 C5           5.0270    -0.1200     0.4190 c2         1 YSV      -0.105400
     23 C10          6.4430    -0.6170     0.7090 c6         1 YSV      -0.032700
     24 C4           4.9260     1.4070     0.4610 c6         1 YSV      -0.032700
     25 C3           5.9370     2.0570    -0.5140 c6         1 YSV       0.212000
     26 O2           5.8450     3.4820    -0.4280 oh         1 YSV      -0.654000
     27 C2           7.3680     1.5680    -0.2350 c2         1 YSV      -0.199400
     28 C28          8.4340     2.3710    -0.0320 c2         1 YSV      -0.297000
     29 C1           7.5090     0.0470    -0.2040 c6         1 YSV       0.212000
     30 O1           7.4170    -0.4510    -1.5390 oh         1 YSV      -0.654000
     31 H1          -9.0070    -0.2560    -0.7560 ho         1 YSV       0.438000
     32 H2         -10.1600     2.4860    -0.9730 hc         1 YSV       0.041200
     33 H3          -8.6670     3.2050    -1.6070 hc         1 YSV       0.041200
     34 H4          -9.2500     1.6590    -2.2530 hc         1 YSV       0.041200
     35 H5          -9.2390     2.6650     1.3580 hc         1 YSV       0.041200
     36 H6          -7.7770     1.7970     1.8430 hc         1 YSV       0.041200
     37 H7          -7.6480     3.2650     0.8510 hc         1 YSV       0.041200
     38 H8          -7.0540     0.5600    -1.7550 hc         1 YSV       0.038700
     39 H9          -6.4110     2.0640    -1.1230 hc         1 YSV       0.038700
     40 H10         -5.7790     0.9370     1.0130 hc         1 YSV       0.046200
     41 H11         -6.5120    -0.5650     0.4460 hc         1 YSV       0.046200
     42 H12         -4.8390    -0.7160    -1.3940 hc         1 YSV       0.036200
     43 H13         -4.2350     0.8790    -0.9890 hc         1 YSV       0.036200
     44 H14         -3.5230    -0.0220     1.2780 hc         1 YSV       0.046700
     45 H15         -3.4660    -2.3600     1.7860 hc         1 YSV       0.033367
     46 H16         -5.0960    -2.0060     1.2830 hc         1 YSV       0.033367
     47 H17         -4.0050    -2.8240     0.1490 hc         1 YSV       0.033367
     48 H18         -2.3550    -1.3580    -1.2730 hc         1 YSV       0.043700
     49 H19         -1.9440     0.9230    -1.7690 hc         1 YSV       0.040200
     50 H20         -1.9450     1.4270    -0.0870 hc         1 YSV       0.040200
     51 H21         -1.3420    -1.3310     2.6000 hc         1 YSV       0.034700
     52 H22          0.3600    -1.0350     2.2270 hc         1 YSV       0.034700
     53 H23         -0.8440     0.2190     1.9440 hc         1 YSV       0.034700
     54 H24         -0.0380    -1.4380    -1.6170 hc         1 YSV       0.052700
     55 H25          0.4240     0.9740    -1.6080 hc         1 YSV       0.044700
     56 H26          0.3530     1.0710     0.1510 hc         1 YSV       0.044700
     57 H27         -1.6640    -3.3620     1.1750 hc         1 YSV       0.040700
     58 H28         -1.1730    -3.3950    -0.5060 hc         1 YSV       0.040700
     59 H29          0.6540    -3.3190     1.9720 hc         1 YSV       0.040200
     60 H30          0.4460    -4.6540     0.8620 hc         1 YSV       0.040200
     61 H31          2.5820    -3.3160     0.5470 hc         1 YSV       0.046700
     62 H32          1.6380    -3.5370    -0.9160 hc         1 YSV       0.046700
     63 H33          2.4450     0.4040    -0.3840 ha         1 YSV       0.172000
     64 H34          4.2480    -2.0490     0.1870 ha         1 YSV       0.170000
     65 H35          6.6870    -0.3940     1.7560 hc         1 YSV       0.058450
     66 H36          6.5060    -1.7100     0.6130 hc         1 YSV       0.058450
     67 H37          3.9190     1.7700     0.2330 hc         1 YSV       0.058450
     68 H38          5.1390     1.7490     1.4830 hc         1 YSV       0.058450
     69 H39          5.6630     1.7410    -1.5320 h1         1 YSV       0.042200
     70 H40          6.4870     3.8300    -1.0820 ho         1 YSV       0.441500
     71 H41          8.3680     3.4590    -0.0380 ha         1 YSV       0.167500
     72 H42          9.4270     1.9620     0.1620 ha         1 YSV       0.167500
     73 H43          8.4970    -0.2110     0.2070 h1         1 YSV       0.042200
     74 H44          8.0520     0.0810    -2.0650 ho         1 YSV       0.441500
@<TRIPOS>BOND
     1     1     2 1   
     2     1    31 1   
     3     2     3 1   
     4     2     4 1   
     5     2     5 1   
     6     3    32 1   
     7     3    33 1   
     8     3    34 1   
     9     4    35 1   
    10     4    36 1   
    11     4    37 1   
    12     5     6 1   
    13     5    38 1   
    14     5    39 1   
    15     6     7 1   
    16     6    40 1   
    17     6    41 1   
    18     7     8 1   
    19     7    42 1   
    20     7    43 1   
    21     8     9 1   
    22     8    10 1   
    23     8    44 1   
    24     9    45 1   
    25     9    46 1   
    26     9    47 1   
    27    10    11 1   
    28    10    12 1   
    29    10    48 1   
    30    11    15 1   
    31    11    49 1   
    32    11    50 1   
    33    12    13 1   
    34    12    14 1   
    35    12    16 1   
    36    13    51 1   
    37    13    52 1   
    38    13    53 1   
    39    14    15 1   
    40    14    19 1   
    41    14    54 1   
    42    15    55 1   
    43    15    56 1   
    44    16    17 1   
    45    16    57 1   
    46    16    58 1   
    47    17    18 1   
    48    17    59 1   
    49    17    60 1   
    50    18    19 1   
    51    18    61 1   
    52    18    62 1   
    53    19    20 2   
    54    20    21 1   
    55    20    63 1   
    56    21    22 2   
    57    21    64 1   
    58    22    23 1   
    59    22    24 1   
    60    23    29 1   
    61    23    65 1   
    62    23    66 1   
    63    24    25 1   
    64    24    67 1   
    65    24    68 1   
    66    25    26 1   
    67    25    27 1   
    68    25    69 1   
    69    26    70 1   
    70    27    28 2   
    71    27    29 1   
    72    28    71 1   
    73    28    72 1   
    74    29    30 1   
    75    29    73 1   
    76    30    74 1   
@<TRIPOS>SUBSTRUCTURE
     1 YSV         1 TEMP              0 ****  ****    0 ROOT
