@<TRIPOS>MOLECULE
YSV
   74    76     1     0     0
SMALL
bcc


@<TRIPOS>ATOM
      1 O3          -8.8490     0.2590     0.2220 oh         1 YSV      -0.597800
      2 C25         -8.1630     1.4540    -0.1400 c3         1 YSV       0.159800
      3 C27         -8.9770     2.2240    -1.1790 c3         1 YSV      -0.100100
      4 C26         -8.0500     2.2790     1.1360 c3         1 YSV      -0.100100
      5 C24         -6.7810     1.1280    -0.7240 c3         1 YSV      -0.102400
      6 C23         -5.8520     0.3230     0.1760 c3         1 YSV      -0.071400
      7 C22         -4.5480    -0.0320    -0.5340 c3         1 YSV      -0.078400
      8 C20         -3.4690    -0.6590     0.3610 c3         1 YSV      -0.046700
      9 C21         -3.9730    -1.9670     0.9670 c3         1 YSV      -0.087100
     10 C17         -2.1670    -0.8190    -0.4400 c5         1 YSV      -0.053700
     11 C16         -1.6510     0.5430    -0.9780 c5         1 YSV      -0.077400
     12 C13         -0.9280    -1.4320     0.2560 c5         1 YSV      -0.035000
     13 C18         -0.7220    -0.8110     1.6410 c3         1 YSV      -0.079100
     14 C14          0.1860    -0.9850    -0.7250 c5         1 YSV      -0.035500
     15 C15         -0.1120     0.4820    -0.9860 c5         1 YSV      -0.071400
     16 C12         -0.8800    -2.9600     0.3340 c6         1 YSV      -0.062400
     17 C11          0.5010    -3.4570     0.7610 c6         1 YSV      -0.071400
     18 C9           1.6280    -2.9150    -0.1260 c6         1 YSV      -0.041200
     19 C8           1.5500    -1.4220    -0.2890 c2         1 YSV      -0.079400
     20 C7           2.5590    -0.5590    -0.0870 ce         1 YSV      -0.140000
     21 C6           3.9100    -0.8880     0.3300 ce         1 YSV      -0.111000
     22 C5           4.9130    -0.0220     0.5410 c2         1 YSV      -0.105400
     23 C10          6.2710    -0.4960     0.9690 c6         1 YSV      -0.032700
     24 C4           4.8210     1.4680     0.3800 c6         1 YSV      -0.032700
     25 C3           5.8910     1.9780    -0.5920 c6         1 YSV       0.188800
     26 O2           5.7760     3.3760    -0.6650 oh         1 YSV      -0.591800
     27 C2           7.2450     1.5010    -0.1280 c2         1 YSV      -0.199400
     28 C28          8.2500     2.3120     0.1830 c2         1 YSV      -0.197000
     29 C1           7.3590     0.0040     0.0200 c6         1 YSV       0.188800
     30 O1           7.1790    -0.6540    -1.2190 oh         1 YSV      -0.591800
     31 H1          -8.9310    -0.2880    -0.5660 ho         1 YSV       0.399000
     32 H2          -9.9720     2.4630    -0.7990 hc         1 YSV       0.041200
     33 H3          -8.4860     3.1610    -1.4460 hc         1 YSV       0.041200
     34 H4          -9.0940     1.6440    -2.0980 hc         1 YSV       0.041200
     35 H5          -9.0380     2.5490     1.5140 hc         1 YSV       0.041200
     36 H6          -7.5230     1.7410     1.9250 hc         1 YSV       0.041200
     37 H7          -7.5060     3.2040     0.9410 hc         1 YSV       0.041200
     38 H8          -6.9270     0.5810    -1.6640 hc         1 YSV       0.038700
     39 H9          -6.2930     2.0670    -1.0050 hc         1 YSV       0.038700
     40 H10         -5.6150     0.8920     1.0820 hc         1 YSV       0.046200
     41 H11         -6.3670    -0.5810     0.5080 hc         1 YSV       0.046200
     42 H12         -4.7580    -0.7100    -1.3700 hc         1 YSV       0.036200
     43 H13         -4.1540     0.8840    -0.9840 hc         1 YSV       0.036200
     44 H14         -3.2780     0.0490     1.1790 hc         1 YSV       0.046700
     45 H15         -3.3010    -2.3570     1.7300 hc         1 YSV       0.033367
     46 H16         -4.9440    -1.8350     1.4460 hc         1 YSV       0.033367
     47 H17         -4.0890    -2.7370     0.1990 hc         1 YSV       0.033367
     48 H18         -2.3960    -1.4660    -1.2990 hc         1 YSV       0.043700
     49 H19         -2.0450     0.7440    -1.9750 hc         1 YSV       0.040200
     50 H20         -2.0000     1.3620    -0.3430 hc         1 YSV       0.040200
     51 H21         -1.4200    -1.2350     2.3650 hc         1 YSV       0.034700
     52 H22          0.2840    -0.9900     2.0220 hc         1 YSV       0.034700
     53 H23         -0.8760     0.2690     1.6360 hc         1 YSV       0.034700
     54 H24         -0.0260    -1.5260    -1.6610 hc         1 YSV       0.052700
     55 H25          0.3200     0.8280    -1.9260 hc         1 YSV       0.044700
     56 H26          0.3020     1.1160    -0.1980 hc         1 YSV       0.044700
     57 H27         -1.6280    -3.3510     1.0250 hc         1 YSV       0.040700
     58 H28         -1.1250    -3.3690    -0.6540 hc         1 YSV       0.040700
     59 H29          0.6900    -3.1750     1.8000 hc         1 YSV       0.040200
     60 H30          0.5220    -4.5490     0.7350 hc         1 YSV       0.040200
     61 H31          2.5920    -3.2400     0.2660 hc         1 YSV       0.046700
     62 H32          1.5320    -3.3690    -1.1200 hc         1 YSV       0.046700
     63 H33          2.3510     0.4910    -0.2620 ha         1 YSV       0.122000
     64 H34          4.1340    -1.9380     0.4920 ha         1 YSV       0.120000
     65 H35          6.5050    -0.1040     1.9650 hc         1 YSV       0.058450
     66 H36          6.3090    -1.5860     1.0370 hc         1 YSV       0.058450
     67 H37          3.8390     1.7880     0.0310 hc         1 YSV       0.058450
     68 H38          4.9910     1.9440     1.3540 hc         1 YSV       0.058450
     69 H39          5.6880     1.5240    -1.5720 h1         1 YSV       0.042200
     70 H40          6.3160     3.6890    -1.3980 ho         1 YSV       0.402500
     71 H41          8.1740     3.3890     0.1170 ha         1 YSV       0.117500
     72 H42          9.1980     1.9170     0.5290 ha         1 YSV       0.117500
     73 H43          8.3400    -0.2380     0.4500 h1         1 YSV       0.042200
     74 H44          7.8610    -0.3410    -1.8220 ho         1 YSV       0.402500
@<TRIPOS>BOND
     1     1     2 1   
     2     1    31 1   
     3     2     3 1   
     4     2     4 1   
     5     2     5 1   
     6     3    32 1   
     7     3    33 1   
     8     3    34 1   
     9     4    35 1   
    10     4    36 1   
    11     4    37 1   
    12     5     6 1   
    13     5    38 1   
    14     5    39 1   
    15     6     7 1   
    16     6    40 1   
    17     6    41 1   
    18     7     8 1   
    19     7    42 1   
    20     7    43 1   
    21     8     9 1   
    22     8    10 1   
    23     8    44 1   
    24     9    45 1   
    25     9    46 1   
    26     9    47 1   
    27    10    11 1   
    28    10    12 1   
    29    10    48 1   
    30    11    15 1   
    31    11    49 1   
    32    11    50 1   
    33    12    13 1   
    34    12    14 1   
    35    12    16 1   
    36    13    51 1   
    37    13    52 1   
    38    13    53 1   
    39    14    15 1   
    40    14    19 1   
    41    14    54 1   
    42    15    55 1   
    43    15    56 1   
    44    16    17 1   
    45    16    57 1   
    46    16    58 1   
    47    17    18 1   
    48    17    59 1   
    49    17    60 1   
    50    18    19 1   
    51    18    61 1   
    52    18    62 1   
    53    19    20 2   
    54    20    21 1   
    55    20    63 1   
    56    21    22 2   
    57    21    64 1   
    58    22    23 1   
    59    22    24 1   
    60    23    29 1   
    61    23    65 1   
    62    23    66 1   
    63    24    25 1   
    64    24    67 1   
    65    24    68 1   
    66    25    26 1   
    67    25    27 1   
    68    25    69 1   
    69    26    70 1   
    70    27    28 2   
    71    27    29 1   
    72    28    71 1   
    73    28    72 1   
    74    29    30 1   
    75    29    73 1   
    76    30    74 1   
@<TRIPOS>SUBSTRUCTURE
     1 YSV         1 TEMP              0 ****  ****    0 ROOT
