@<TRIPOS>MOLECULE
YSW
   96    95     1     0     0
SMALL
abcg2


@<TRIPOS>ATOM
      1 C01        161.4090   197.0060   190.1450 c3         1 YSW      -0.087100
      2 C02        160.9190   196.4020   188.8370 c3         1 YSW      -0.075400
      3 C03        160.4060   197.4480   187.8570 c3         1 YSW      -0.074400
      4 C04        159.9490   196.8580   186.5300 c3         1 YSW      -0.077400
      5 C05        159.4290   197.9050   185.5530 c3         1 YSW      -0.075400
      6 C06        159.1960   197.3530   184.1520 c3         1 YSW      -0.076400
      7 C07        158.7060   198.4090   183.1690 c3         1 YSW      -0.073400
      8 C08        158.4680   197.8950   181.7510 c3         1 YSW      -0.074400
      9 C09        159.7170   197.3150   181.0950 c3         1 YSW      -0.079400
     10 C10        159.5450   196.9740   179.6200 c3         1 YSW      -0.064400
     11 C11        159.2970   198.2140   178.7340 c3         1 YSW      -0.138400
     12 C12        160.1170   198.2070   177.4730 c          1 YSW       0.595100
     13 C15        162.3630   198.2730   176.7010 c3         1 YSW       0.133600
     14 C16        163.7360   198.3270   177.3510 c3         1 YSW       0.137300
     15 C17        164.8410   198.4880   176.3110 c3         1 YSW       0.218600
     16 C23        168.2700   195.8560   175.8570 c3         1 YSW       0.231600
     17 C24        168.9080   195.7620   174.4840 c3         1 YSW       0.130800
     18 C29        163.6420   201.3270   179.5370 c3         1 YSW      -0.138400
     19 C30        162.8680   200.6670   180.6790 c3         1 YSW      -0.070400
     20 C31        162.9900   201.4520   181.9790 c3         1 YSW      -0.075400
     21 C32        162.2180   200.8310   183.1440 c3         1 YSW      -0.069400
     22 C33        162.5550   199.3720   183.4480 c3         1 YSW      -0.077400
     23 C34        164.0050   199.1220   183.8490 c3         1 YSW      -0.070400
     24 C35        164.3940   197.6460   183.8630 c3         1 YSW      -0.079400
     25 C36        163.5510   196.7620   184.7750 c3         1 YSW      -0.073400
     26 C37        164.0660   195.3290   184.8260 c3         1 YSW      -0.080400
     27 C38        163.2070   194.3980   185.6720 c3         1 YSW      -0.074400
     28 C39        163.7470   192.9750   185.7090 c3         1 YSW      -0.088100
     29 N25        169.5860   194.4820   174.3480 n8         1 YSW      -1.003200
     30 O13        159.6920   198.1680   176.3470 o          1 YSW      -0.498000
     31 O14        161.4160   198.2530   177.7630 os         1 YSW      -0.440100
     32 O18        166.0800   198.7820   176.9090 os         1 YSW      -0.568400
     33 O20        166.3280   196.4900   178.1050 o          1 YSW      -0.819500
     34 O21        168.2020   198.3050   178.1430 o          1 YSW      -0.819500
     35 O22        167.5920   197.0930   175.9570 os         1 YSW      -0.616400
     36 O26        163.8140   199.2850   178.4080 os         1 YSW      -0.416100
     37 O28        163.3610   201.0880   177.1590 o          1 YSW      -0.513000
     38 P19        167.0870   197.6000   177.4410 p5         1 YSW       1.397800
     39 H1         161.7840   196.2420   190.8270 hc         1 YSW       0.029700
     40 H2         162.2170   197.7190   189.9700 hc         1 YSW       0.029700
     41 H3         160.6070   197.5410   190.6570 hc         1 YSW       0.029700
     42 H4         160.1250   195.6760   189.0410 hc         1 YSW       0.036700
     43 H5         161.7300   195.8350   188.3680 hc         1 YSW       0.036700
     44 H6         161.1960   198.1840   187.6670 hc         1 YSW       0.036200
     45 H7         159.5820   198.0040   188.3170 hc         1 YSW       0.036200
     46 H8         159.1730   196.1060   186.7080 hc         1 YSW       0.038700
     47 H9         160.7870   196.3210   186.0720 hc         1 YSW       0.038700
     48 H10        160.1490   198.7290   185.4940 hc         1 YSW       0.036200
     49 H11        158.5030   198.3440   185.9390 hc         1 YSW       0.036200
     50 H12        158.4750   196.5280   184.1950 hc         1 YSW       0.039700
     51 H13        160.1330   196.9150   183.7940 hc         1 YSW       0.039700
     52 H14        159.4320   199.2290   183.1310 hc         1 YSW       0.035700
     53 H15        157.7780   198.8480   183.5480 hc         1 YSW       0.035700
     54 H16        158.0840   198.7210   181.1440 hc         1 YSW       0.033700
     55 H17        157.6800   197.1350   181.7610 hc         1 YSW       0.033700
     56 H18        160.0240   196.4110   181.6260 hc         1 YSW       0.048700
     57 H19        160.5460   198.0250   181.1990 hc         1 YSW       0.048700
     58 H20        158.7170   196.2730   179.4950 hc         1 YSW       0.049700
     59 H21        160.4390   196.4440   179.2870 hc         1 YSW       0.049700
     60 H22        159.5630   199.1200   179.2880 hc         1 YSW       0.066200
     61 H23        158.2460   198.3050   178.4640 hc         1 YSW       0.066200
     62 H24        162.1810   199.1200   176.0390 h1         1 YSW       0.059200
     63 H25        162.2990   197.3590   176.1040 h1         1 YSW       0.059200
     64 H26        163.9040   197.3860   177.8760 h1         1 YSW       0.119700
     65 H27        164.6130   199.3040   175.6230 h1         1 YSW       0.033200
     66 H28        164.8680   197.5680   175.7160 h1         1 YSW       0.033200
     67 H29        167.5810   195.0160   175.9950 h1         1 YSW       0.023700
     68 H30        169.0500   195.7650   176.6250 h1         1 YSW       0.023700
     69 H31        169.5610   196.6320   174.3310 h1         1 YSW       0.032200
     70 H32        168.1240   195.8200   173.7240 h1         1 YSW       0.032200
     71 H33        164.6970   201.4120   179.8210 hc         1 YSW       0.067700
     72 H34        163.2820   202.3410   179.3610 hc         1 YSW       0.067700
     73 H35        161.8120   200.5710   180.4040 hc         1 YSW       0.053200
     74 H36        163.2430   199.6530   180.8260 hc         1 YSW       0.053200
     75 H37        164.0490   201.5500   182.2370 hc         1 YSW       0.035200
     76 H38        162.6270   202.4720   181.8240 hc         1 YSW       0.035200
     77 H39        162.3870   201.4370   184.0400 hc         1 YSW       0.028200
     78 H40        161.1460   200.9000   182.9330 hc         1 YSW       0.028200
     79 H41        161.8970   199.0300   184.2500 hc         1 YSW       0.037700
     80 H42        162.3010   198.7500   182.5830 hc         1 YSW       0.037700
     81 H43        164.6790   199.6420   183.1610 hc         1 YSW       0.038700
     82 H44        164.1870   199.5610   184.8360 hc         1 YSW       0.038700
     83 H45        164.3340   197.2560   182.8400 hc         1 YSW       0.049700
     84 H46        165.4450   197.5600   184.1560 hc         1 YSW       0.049700
     85 H47        163.5300   197.1820   185.7870 hc         1 YSW       0.030200
     86 H48        162.5120   196.7550   184.4300 hc         1 YSW       0.030200
     87 H49        164.1270   194.9330   183.8060 hc         1 YSW       0.043700
     88 H50        165.0920   195.3250   185.2110 hc         1 YSW       0.043700
     89 H51        163.1380   194.7920   186.6910 hc         1 YSW       0.030700
     90 H52        162.1850   194.3960   185.2810 hc         1 YSW       0.030700
     91 H53        163.1150   192.3200   186.3100 hc         1 YSW       0.029700
     92 H54        163.8030   192.5500   184.7060 hc         1 YSW       0.029700
     93 H55        164.7510   192.9460   186.1350 hc         1 YSW       0.029700
     94 H56        169.9070   194.3710   173.3960 hn         1 YSW       0.379500
     95 H57        170.4220   194.4810   174.9190 hn         1 YSW       0.379500
     96 C27        163.5800   200.5790   178.2300 c          1 YSW       0.613100
@<TRIPOS>BOND
     1     1     2 1   
     2     1    39 1   
     3     1    40 1   
     4     1    41 1   
     5     2     3 1   
     6     2    42 1   
     7     2    43 1   
     8     3     4 1   
     9     3    44 1   
    10     3    45 1   
    11     4     5 1   
    12     4    46 1   
    13     4    47 1   
    14     5     6 1   
    15     5    48 1   
    16     5    49 1   
    17     6     7 1   
    18     6    50 1   
    19     6    51 1   
    20     7     8 1   
    21     7    52 1   
    22     7    53 1   
    23     8     9 1   
    24     8    54 1   
    25     8    55 1   
    26     9    10 1   
    27     9    56 1   
    28     9    57 1   
    29    10    11 1   
    30    10    58 1   
    31    10    59 1   
    32    11    12 1   
    33    11    60 1   
    34    11    61 1   
    35    12    30 2   
    36    12    31 1   
    37    13    14 1   
    38    13    31 1   
    39    13    62 1   
    40    13    63 1   
    41    14    15 1   
    42    14    36 1   
    43    14    64 1   
    44    15    32 1   
    45    15    65 1   
    46    15    66 1   
    47    16    17 1   
    48    16    35 1   
    49    16    67 1   
    50    16    68 1   
    51    17    29 1   
    52    17    69 1   
    53    17    70 1   
    54    18    19 1   
    55    18    71 1   
    56    18    72 1   
    57    18    96 1   
    58    19    20 1   
    59    19    73 1   
    60    19    74 1   
    61    20    21 1   
    62    20    75 1   
    63    20    76 1   
    64    21    22 1   
    65    21    77 1   
    66    21    78 1   
    67    22    23 1   
    68    22    79 1   
    69    22    80 1   
    70    23    24 1   
    71    23    81 1   
    72    23    82 1   
    73    24    25 1   
    74    24    83 1   
    75    24    84 1   
    76    25    26 1   
    77    25    85 1   
    78    25    86 1   
    79    26    27 1   
    80    26    87 1   
    81    26    88 1   
    82    27    28 1   
    83    27    89 1   
    84    27    90 1   
    85    28    91 1   
    86    28    92 1   
    87    28    93 1   
    88    29    94 1   
    89    29    95 1   
    90    32    38 1   
    91    33    38 1   
    92    34    38 1   
    93    35    38 1   
    94    36    96 1   
    95    37    96 2   
@<TRIPOS>SUBSTRUCTURE
     1 YSW         1 TEMP              0 ****  ****    0 ROOT
