@<TRIPOS>MOLECULE
YSW
   96    95     1     0     0
SMALL
No Charge or Current Charge


@<TRIPOS>ATOM
      1 C01        158.3380   193.8810   191.1320 c3         1 YSW      -0.087100
      2 C02        158.7960   193.6870   189.6740 c3         1 YSW      -0.075400
      3 C03        158.6620   194.9680   188.8230 c3         1 YSW      -0.074400
      4 C04        159.1260   194.7750   187.3630 c3         1 YSW      -0.077400
      5 C05        158.9980   196.0600   186.5160 c3         1 YSW      -0.075400
      6 C06        159.5030   195.8840   185.0670 c3         1 YSW      -0.076400
      7 C07        159.4050   197.1810   184.2310 c3         1 YSW      -0.073400
      8 C08        159.7330   197.0030   182.7290 c3         1 YSW      -0.074400
      9 C09        161.2020   196.6130   182.4300 c3         1 YSW      -0.079400
     10 C10        161.5110   196.4030   180.9280 c3         1 YSW      -0.064400
     11 C11        161.4320   197.6920   180.0740 c3         1 YSW      -0.138400
     12 C12        161.7700   197.4210   178.6060 c          1 YSW       0.595100
     13 C15        163.4940   197.6670   176.9370 c3         1 YSW       0.133600
     14 C16        164.9690   198.1470   176.8450 c3         1 YSW       0.137300
     15 C17        165.4820   198.2420   175.3730 c3         1 YSW       0.218600
     16 C23        167.4170   196.3550   173.1690 c3         1 YSW       0.231600
     17 C24        167.0580   194.9530   173.7590 c3         1 YSW       0.130800
     18 C29        164.6680   201.6860   178.1500 c3         1 YSW      -0.138400
     19 C30        163.7000   201.5410   179.3490 c3         1 YSW      -0.070400
     20 C31        163.9420   202.5920   180.4570 c3         1 YSW      -0.075400
     21 C32        162.9780   202.4870   181.6670 c3         1 YSW      -0.069400
     22 C33        162.9560   201.1250   182.4070 c3         1 YSW      -0.077400
     23 C34        164.3250   200.6810   182.9840 c3         1 YSW      -0.070400
     24 C35        164.3170   199.2850   183.6520 c3         1 YSW      -0.079400
     25 C36        163.4280   199.1800   184.9130 c3         1 YSW      -0.073400
     26 C37        163.5250   197.8030   185.6070 c3         1 YSW      -0.080400
     27 C38        162.6570   197.7110   186.8800 c3         1 YSW      -0.074400
     28 C39        162.7090   196.3240   187.5480 c3         1 YSW      -0.088100
     29 N25        166.4130   194.0410   172.7750 n8         1 YSW      -1.003200
     30 O13        160.9580   197.0110   177.7880 o          1 YSW      -0.498000
     31 O14        163.0650   197.7520   178.3120 os         1 YSW      -0.440100
     32 O18        166.8780   198.5890   175.3470 os         1 YSW      -0.568400
     33 O20        167.5900   196.3300   176.3930 o          1 YSW      -0.819500
     34 O21        169.2510   198.1290   176.1460 o          1 YSW      -0.819500
     35 O22        168.3120   197.0980   174.0220 os         1 YSW      -0.616400
     36 O26        165.1330   199.4230   177.5300 os         1 YSW      -0.416100
     37 O28        163.6520   200.6210   176.2220 o          1 YSW      -0.513000
     38 P19        168.0360   197.4860   175.5660 p5         1 YSW       1.397800
     39 H1         158.4500   192.9460   191.6950 hc         1 YSW       0.029700
     40 H2         158.9390   194.6530   191.6280 hc         1 YSW       0.029700
     41 H3         157.2840   194.1820   191.1720 hc         1 YSW       0.029700
     42 H4         158.2040   192.8840   189.2180 hc         1 YSW       0.036700
     43 H5         159.8420   193.3560   189.6700 hc         1 YSW       0.036700
     44 H6         159.2520   195.7700   189.2850 hc         1 YSW       0.036200
     45 H7         157.6150   195.2970   188.8280 hc         1 YSW       0.036200
     46 H8         158.5340   193.9770   186.8980 hc         1 YSW       0.038700
     47 H9         160.1710   194.4420   187.3590 hc         1 YSW       0.038700
     48 H10        159.5590   196.8670   187.0010 hc         1 YSW       0.036200
     49 H11        157.9460   196.3730   186.4960 hc         1 YSW       0.036200
     50 H12        158.9190   195.0940   184.5790 hc         1 YSW       0.039700
     51 H13        160.5450   195.5440   185.0930 hc         1 YSW       0.039700
     52 H14        160.0670   197.9440   184.6590 hc         1 YSW       0.035700
     53 H15        158.3830   197.5750   184.3110 hc         1 YSW       0.035700
     54 H16        159.5020   197.9480   182.2240 hc         1 YSW       0.033700
     55 H17        159.0620   196.2470   182.3030 hc         1 YSW       0.033700
     56 H18        161.4450   195.6830   182.9570 hc         1 YSW       0.048700
     57 H19        161.8690   197.3850   182.8330 hc         1 YSW       0.048700
     58 H20        160.8230   195.6510   180.5200 hc         1 YSW       0.049700
     59 H21        162.5210   195.9830   180.8360 hc         1 YSW       0.049700
     60 H22        162.1620   198.4000   180.4830 hc         1 YSW       0.066200
     61 H23        160.4200   198.1070   180.1260 hc         1 YSW       0.066200
     62 H24        162.8520   198.2760   176.2880 h1         1 YSW       0.059200
     63 H25        163.4340   196.6310   176.5800 h1         1 YSW       0.059200
     64 H26        165.5670   197.3880   177.3630 h1         1 YSW       0.119700
     65 H27        164.8990   198.9800   174.8090 h1         1 YSW       0.033200
     66 H28        165.3170   197.2720   174.8880 h1         1 YSW       0.033200
     67 H29        167.9000   196.2060   172.1950 h1         1 YSW       0.023700
     68 H30        166.4960   196.9230   172.9850 h1         1 YSW       0.023700
     69 H31        166.3650   195.0700   174.6020 h1         1 YSW       0.032200
     70 H32        167.9750   194.4690   174.1220 h1         1 YSW       0.032200
     71 H33        165.6880   201.6160   178.5460 hc         1 YSW       0.067700
     72 H34        164.5020   202.6520   177.6610 hc         1 YSW       0.067700
     73 H35        162.6640   201.6190   178.9930 hc         1 YSW       0.053200
     74 H36        163.8180   200.5350   179.7700 hc         1 YSW       0.053200
     75 H37        164.9790   202.5200   180.8080 hc         1 YSW       0.035200
     76 H38        163.8390   203.5940   180.0210 hc         1 YSW       0.035200
     77 H39        163.2360   203.2740   182.3870 hc         1 YSW       0.028200
     78 H40        161.9600   202.7100   181.3230 hc         1 YSW       0.028200
     79 H41        162.2310   201.2030   183.2260 hc         1 YSW       0.037700
     80 H42        162.5730   200.3500   181.7360 hc         1 YSW       0.037700
     81 H43        165.0660   200.6540   182.1770 hc         1 YSW       0.038700
     82 H44        164.6740   201.4280   183.7070 hc         1 YSW       0.038700
     83 H45        164.0010   198.5360   182.9160 hc         1 YSW       0.049700
     84 H46        165.3490   199.0320   183.9270 hc         1 YSW       0.049700
     85 H47        163.7190   199.9630   185.6240 hc         1 YSW       0.030200
     86 H48        162.3820   199.3630   184.6420 hc         1 YSW       0.030200
     87 H49        163.2160   197.0210   184.9020 hc         1 YSW       0.043700
     88 H50        164.5710   197.6020   185.8700 hc         1 YSW       0.043700
     89 H51        162.9870   198.4680   187.6020 hc         1 YSW       0.030700
     90 H52        161.6180   197.9480   186.6250 hc         1 YSW       0.030700
     91 H53        162.0460   196.2950   188.4210 hc         1 YSW       0.029700
     92 H54        162.3900   195.5440   186.8480 hc         1 YSW       0.029700
     93 H55        163.7280   196.0930   187.8820 hc         1 YSW       0.029700
     94 H56        166.1760   193.1570   173.2430 hn         1 YSW       0.379500
     95 H57        165.4990   194.4250   172.5040 hn         1 YSW       0.379500
     96 C27        164.4550   200.5540   177.1430 c          1 YSW       0.613100
@<TRIPOS>BOND
     1     1     2 1   
     2     1    39 1   
     3     1    40 1   
     4     1    41 1   
     5     2     3 1   
     6     2    42 1   
     7     2    43 1   
     8     3     4 1   
     9     3    44 1   
    10     3    45 1   
    11     4     5 1   
    12     4    46 1   
    13     4    47 1   
    14     5     6 1   
    15     5    48 1   
    16     5    49 1   
    17     6     7 1   
    18     6    50 1   
    19     6    51 1   
    20     7     8 1   
    21     7    52 1   
    22     7    53 1   
    23     8     9 1   
    24     8    54 1   
    25     8    55 1   
    26     9    10 1   
    27     9    56 1   
    28     9    57 1   
    29    10    11 1   
    30    10    58 1   
    31    10    59 1   
    32    11    12 1   
    33    11    60 1   
    34    11    61 1   
    35    12    30 2   
    36    12    31 1   
    37    13    14 1   
    38    13    31 1   
    39    13    62 1   
    40    13    63 1   
    41    14    15 1   
    42    14    36 1   
    43    14    64 1   
    44    15    32 1   
    45    15    65 1   
    46    15    66 1   
    47    16    17 1   
    48    16    35 1   
    49    16    67 1   
    50    16    68 1   
    51    17    29 1   
    52    17    69 1   
    53    17    70 1   
    54    18    19 1   
    55    18    71 1   
    56    18    72 1   
    57    18    96 1   
    58    19    20 1   
    59    19    73 1   
    60    19    74 1   
    61    20    21 1   
    62    20    75 1   
    63    20    76 1   
    64    21    22 1   
    65    21    77 1   
    66    21    78 1   
    67    22    23 1   
    68    22    79 1   
    69    22    80 1   
    70    23    24 1   
    71    23    81 1   
    72    23    82 1   
    73    24    25 1   
    74    24    83 1   
    75    24    84 1   
    76    25    26 1   
    77    25    85 1   
    78    25    86 1   
    79    26    27 1   
    80    26    87 1   
    81    26    88 1   
    82    27    28 1   
    83    27    89 1   
    84    27    90 1   
    85    28    91 1   
    86    28    92 1   
    87    28    93 1   
    88    29    94 1   
    89    29    95 1   
    90    32    38 1   
    91    33    38 1   
    92    34    38 1   
    93    35    38 1   
    94    36    96 1   
    95    37    96 2   
@<TRIPOS>SUBSTRUCTURE
     1 YSW         1 TEMP              0 ****  ****    0 ROOT
