@<TRIPOS>MOLECULE
YSX
   63    66     1     0     0
SMALL
abcg2


@<TRIPOS>ATOM
      1 C10        -22.1240   -11.6300    10.0360 cc         1 YSX      -0.159400
      2 C11        -21.5450   -11.8330     8.7060 ca         1 YSX       0.103200
      3 C12        -21.8290   -12.9980     7.9930 ca         1 YSX      -0.161000
      4 C13        -21.2230   -13.2240     6.7740 ca         1 YSX       0.189000
      5 C15        -20.3160   -12.3400     6.2110 ca         1 YSX      -0.167300
      6 C16        -19.6460   -12.6180     4.9080 c3         1 YSX      -0.199100
      7 C18        -20.7930   -10.3700     3.6220 c3         1 YSX      -0.331100
      8 C21        -20.0410   -11.1790     6.9340 ca         1 YSX      -0.090000
      9 C22        -20.6410   -10.9240     8.1520 ca         1 YSX      -0.086000
     10 C23        -22.0370   -12.5890    11.1000 ca         1 YSX      -0.087800
     11 C24        -21.4600   -13.8600    11.2140 ca         1 YSX      -0.063000
     12 C25        -21.5150   -14.5030    12.4320 ca         1 YSX      -0.163000
     13 C26        -22.1370   -13.9100    13.5420 ca         1 YSX      -0.079000
     14 C01        -22.9860   -12.4970    16.0200 c3         1 YSX      -0.099100
     15 C02        -23.3820   -11.9740    14.6460 c3         1 YSX       0.189000
     16 C03        -22.7150   -12.6570    13.4740 ca         1 YSX      -0.124300
     17 C04        -22.6440   -12.0080    12.2340 ca         1 YSX      -0.051200
     18 C06        -22.7640   -10.5250    10.5540 cd         1 YSX      -0.053300
     19 C07        -23.2000    -9.2080     9.9510 c          1 YSX       0.722200
     20 C28        -25.5750   -10.8240    14.3060 c          1 YSX       0.556000
     21 C30        -27.0140   -11.2640    14.2010 c5         1 YSX       0.003000
     22 C33        -28.6370   -13.6470    15.7610 c3         1 YSX      -0.110400
     23 C34        -29.8420   -14.5720    15.8230 c3         1 YSX       0.151800
     24 C36        -25.6430   -13.1030    14.4650 c          1 YSX       0.620000
     25 F14        -21.5090   -14.3610     6.1220 f          1 YSX      -0.185000
     26 N05        -23.0700   -10.7700    11.8640 na         1 YSX      -0.197700
     27 N27        -24.8340   -11.9560    14.4730 n          1 YSX      -0.384400
     28 N31        -26.9120   -12.6960    14.2590 n          1 YSX      -0.422800
     29 N35        -30.3740   -14.6320    17.1760 n8         1 YSX      -0.997200
     30 O08        -23.0680    -9.0780     8.7250 o          1 YSX      -0.697500
     31 O09        -23.6620    -8.3890    10.7700 o          1 YSX      -0.697500
     32 O19        -21.9800   -12.7200     3.6100 o          1 YSX      -0.530000
     33 O20        -19.8650   -12.4460     2.2840 o          1 YSX      -0.530000
     34 O29        -25.1530    -9.6900    14.2480 o          1 YSX      -0.498000
     35 O37        -25.2450   -14.2370    14.6130 o          1 YSX      -0.547000
     36 S17        -20.6460   -12.1380     3.4820 s6         1 YSX       1.064000
     37 H121       -22.5280   -13.7280     8.3830 ha         1 YSX       0.134000
     38 H161       -19.4360   -13.6780     4.7480 h1         1 YSX       0.096200
     39 H162       -18.7060   -12.0720     4.8160 h1         1 YSX       0.096200
     40 H183       -21.3380   -10.1100     4.5270 h1         1 YSX       0.104700
     41 H181       -19.8030    -9.9190     3.6310 h1         1 YSX       0.104700
     42 H182       -21.3480   -10.0310     2.7480 h1         1 YSX       0.104700
     43 H211       -19.3270   -10.4710     6.5320 ha         1 YSX       0.098000
     44 H221       -20.3870   -10.0240     8.6930 ha         1 YSX       0.137000
     45 H241       -20.9710   -14.3260    10.3680 ha         1 YSX       0.107000
     46 H251       -21.0720   -15.4840    12.5420 ha         1 YSX       0.095000
     47 H261       -22.1510   -14.4570    14.4750 ha         1 YSX       0.101000
     48 H013       -23.4720   -11.9020    16.7920 hc         1 YSX       0.043367
     49 H011       -23.2560   -13.5390    16.1730 hc         1 YSX       0.043367
     50 H012       -21.9090   -12.4000    16.1490 hc         1 YSX       0.043367
     51 H021       -23.0920   -10.9200    14.6200 h1         1 YSX       0.075700
     52 H301       -27.5940   -10.8460    15.0300 h1         1 YSX       0.080200
     53 H302       -27.4570   -10.9130    13.2650 h1         1 YSX       0.080200
     54 H321       -28.8130   -13.2100    13.6520 h1         1 YSX       0.059700
     55 H322       -27.7590   -14.5610    14.0110 h1         1 YSX       0.059700
     56 H331       -27.8630   -14.0050    16.4470 hc         1 YSX       0.054200
     57 H332       -28.9310   -12.6510    16.1030 hc         1 YSX       0.054200
     58 H342       -30.6250   -14.1840    15.1650 h1         1 YSX       0.027700
     59 H341       -29.5600   -15.5550    15.4170 h1         1 YSX       0.027700
     60 H051       -23.5460   -10.0860    12.4320 hn         1 YSX       0.380000
     61 H352       -31.2010   -15.2150    17.1880 hn         1 YSX       0.391000
     62 H1         -29.7040   -15.0970    17.7760 hn         1 YSX       0.391000
     63 C32        -28.0580   -13.5700    14.3540 c3         1 YSX       0.124000
@<TRIPOS>BOND
     1     1     2 1   
     2     1    10 1   
     3     1    18 2   
     4     2     3 ar  
     5     2     9 ar  
     6     3     4 ar  
     7     3    37 1   
     8     4     5 ar  
     9     4    25 1   
    10     5     6 1   
    11     5     8 ar  
    12     6    36 1   
    13     6    38 1   
    14     6    39 1   
    15     7    36 1   
    16     7    40 1   
    17     7    41 1   
    18     7    42 1   
    19     8     9 ar  
    20     8    43 1   
    21     9    44 1   
    22    10    11 ar  
    23    10    17 ar  
    24    11    12 ar  
    25    11    45 1   
    26    12    13 ar  
    27    12    46 1   
    28    13    16 ar  
    29    13    47 1   
    30    14    15 1   
    31    14    48 1   
    32    14    49 1   
    33    14    50 1   
    34    15    16 1   
    35    15    27 1   
    36    15    51 1   
    37    16    17 ar  
    38    17    26 1   
    39    18    19 1   
    40    18    26 1   
    41    19    30 1   
    42    19    31 1   
    43    20    21 1   
    44    20    27 1   
    45    20    34 2   
    46    21    28 1   
    47    21    52 1   
    48    21    53 1   
    49    22    23 1   
    50    22    56 1   
    51    22    57 1   
    52    22    63 1   
    53    23    29 1   
    54    23    58 1   
    55    23    59 1   
    56    24    27 1   
    57    24    28 1   
    58    24    35 2   
    59    26    60 1   
    60    28    63 1   
    61    29    61 1   
    62    29    62 1   
    63    32    36 2   
    64    33    36 2   
    65    54    63 1   
    66    55    63 1   
@<TRIPOS>SUBSTRUCTURE
     1 YSX         1 TEMP              0 ****  ****    0 ROOT
