@<TRIPOS>MOLECULE
YSX
   63    66     1     0     0
SMALL
No Charge or Current Charge


@<TRIPOS>ATOM
      1 C10        -22.0430   -11.7080    10.1890 cc         1 YSX      -0.159400
      2 C11        -21.5710   -11.9720     8.8330 ca         1 YSX       0.103200
      3 C12        -22.0780   -13.0700     8.1180 ca         1 YSX      -0.161000
      4 C13        -21.6020   -13.3550     6.8300 ca         1 YSX       0.189000
      5 C15        -20.6030   -12.5520     6.2380 ca         1 YSX      -0.167300
      6 C16        -20.0720   -12.8490     4.8310 c3         1 YSX      -0.199100
      7 C18        -20.9900   -10.3370     3.8110 c3         1 YSX      -0.331100
      8 C21        -20.0820   -11.4650     6.9660 ca         1 YSX      -0.090000
      9 C22        -20.5620   -11.1800     8.2560 ca         1 YSX      -0.086000
     10 C23        -21.8890   -12.5520    11.3330 ca         1 YSX      -0.087800
     11 C24        -21.2590   -13.7940    11.4650 ca         1 YSX      -0.063000
     12 C25        -21.2650   -14.3970    12.7370 ca         1 YSX      -0.163000
     13 C26        -21.8910   -13.7550    13.8310 ca         1 YSX      -0.079000
     14 C01        -22.7780   -12.1800    16.2460 c3         1 YSX      -0.099100
     15 C02        -23.2180   -11.7580    14.8270 c3         1 YSX       0.189000
     16 C03        -22.5200   -12.4920    13.6720 ca         1 YSX      -0.124300
     17 C04        -22.4920   -11.9190    12.3840 ca         1 YSX      -0.051200
     18 C06        -22.7710   -10.5770    10.5810 cd         1 YSX      -0.053300
     19 C07        -23.2370    -9.4310     9.7250 c          1 YSX       0.722200
     20 C28        -25.4220   -10.5580    14.7010 c          1 YSX       0.556000
     21 C30        -26.8790   -11.0270    14.4820 c5         1 YSX       0.003000
     22 C33        -28.6640   -13.7620    15.3960 c3         1 YSX      -0.110400
     23 C34        -29.8150   -14.7520    15.1450 c3         1 YSX       0.151800
     24 C36        -25.4400   -12.8920    14.4910 c          1 YSX       0.620000
     25 F14        -22.1050   -14.4200     6.1660 f          1 YSX      -0.185000
     26 N05        -23.0320   -10.7040    11.9730 na         1 YSX      -0.197700
     27 N27        -24.6920   -11.7450    14.7030 n          1 YSX      -0.384400
     28 N31        -26.7660   -12.4970    14.3560 n          1 YSX      -0.422800
     29 N35        -30.5610   -15.0310    16.3840 n8         1 YSX      -0.997200
     30 O08        -23.0160    -9.4210     8.5220 o          1 YSX      -0.697500
     31 O09        -23.8560    -8.5330    10.2820 o          1 YSX      -0.697500
     32 O19        -22.4050   -12.5510     3.5550 o          1 YSX      -0.530000
     33 O20        -20.2600   -12.3160     2.2270 o          1 YSX      -0.530000
     34 O29        -24.9710    -9.4270    14.8170 o          1 YSX      -0.498000
     35 O37        -25.0330   -14.0420    14.4550 o          1 YSX      -0.547000
     36 S17        -21.0110   -12.0970     3.4710 s6         1 YSX       1.064000
     37 H121       -22.8420   -13.7010     8.5630 ha         1 YSX       0.134000
     38 H161       -20.0740   -13.9270     4.6350 h1         1 YSX       0.096200
     39 H162       -19.0450   -12.4830     4.7240 h1         1 YSX       0.096200
     40 H183       -21.5030   -10.1770     4.7660 h1         1 YSX       0.104700
     41 H181       -19.9440   -10.0190     3.8640 h1         1 YSX       0.104700
     42 H182       -21.5160    -9.8360     2.9920 h1         1 YSX       0.104700
     43 H211       -19.3040   -10.8390     6.5350 ha         1 YSX       0.098000
     44 H221       -20.1510   -10.3420     8.8130 ha         1 YSX       0.137000
     45 H241       -20.7810   -14.2770    10.6160 ha         1 YSX       0.107000
     46 H251       -20.7890   -15.3640    12.8780 ha         1 YSX       0.095000
     47 H261       -21.8870   -14.2550    14.7960 ha         1 YSX       0.101000
     48 H013       -23.2060   -11.5020    16.9940 hc         1 YSX       0.043367
     49 H011       -23.1150   -13.1970    16.4800 hc         1 YSX       0.043367
     50 H012       -21.6860   -12.1420    16.3390 hc         1 YSX       0.043367
     51 H021       -22.8750   -10.7180    14.7410 h1         1 YSX       0.075700
     52 H301       -27.4850   -10.7330    15.3480 h1         1 YSX       0.080200
     53 H302       -27.2750   -10.5630    13.5700 h1         1 YSX       0.080200
     54 H321       -28.5460   -13.0070    13.3690 h1         1 YSX       0.059700
     55 H322       -27.4690   -14.3750    13.6920 h1         1 YSX       0.059700
     56 H331       -27.9790   -14.1770    16.1450 hc         1 YSX       0.054200
     57 H332       -29.0690   -12.8290    15.8070 hc         1 YSX       0.054200
     58 H342       -30.5090   -14.3340    14.4020 h1         1 YSX       0.027700
     59 H341       -29.4130   -15.6980    14.7540 h1         1 YSX       0.027700
     60 H051       -23.5330   -10.0290    12.5400 hn         1 YSX       0.380000
     61 H352       -31.2790   -15.7400    16.1900 hn         1 YSX       0.391000
     62 H1         -29.9370   -15.4990    17.0520 hn         1 YSX       0.391000
     63 C32        -27.8690   -13.4440    14.1150 c3         1 YSX       0.124000
@<TRIPOS>BOND
     1     1     2 1   
     2     1    10 1   
     3     1    18 2   
     4     2     3 ar  
     5     2     9 ar  
     6     3     4 ar  
     7     3    37 1   
     8     4     5 ar  
     9     4    25 1   
    10     5     6 1   
    11     5     8 ar  
    12     6    36 1   
    13     6    38 1   
    14     6    39 1   
    15     7    36 1   
    16     7    40 1   
    17     7    41 1   
    18     7    42 1   
    19     8     9 ar  
    20     8    43 1   
    21     9    44 1   
    22    10    11 ar  
    23    10    17 ar  
    24    11    12 ar  
    25    11    45 1   
    26    12    13 ar  
    27    12    46 1   
    28    13    16 ar  
    29    13    47 1   
    30    14    15 1   
    31    14    48 1   
    32    14    49 1   
    33    14    50 1   
    34    15    16 1   
    35    15    27 1   
    36    15    51 1   
    37    16    17 ar  
    38    17    26 1   
    39    18    19 1   
    40    18    26 1   
    41    19    30 1   
    42    19    31 1   
    43    20    21 1   
    44    20    27 1   
    45    20    34 2   
    46    21    28 1   
    47    21    52 1   
    48    21    53 1   
    49    22    23 1   
    50    22    56 1   
    51    22    57 1   
    52    22    63 1   
    53    23    29 1   
    54    23    58 1   
    55    23    59 1   
    56    24    27 1   
    57    24    28 1   
    58    24    35 2   
    59    26    60 1   
    60    28    63 1   
    61    29    61 1   
    62    29    62 1   
    63    32    36 2   
    64    33    36 2   
    65    54    63 1   
    66    55    63 1   
@<TRIPOS>SUBSTRUCTURE
     1 YSX         1 TEMP              0 ****  ****    0 ROOT
