@<TRIPOS>MOLECULE
YSY
   27    29     1     0     0
SMALL
No Charge or Current Charge


@<TRIPOS>ATOM
      1 C10         25.8110   -28.4520   -13.8630 c5         1 YSY       0.134600
      2 C13         25.4410   -28.9140   -16.1260 cc         1 YSY      -0.218300
      3 C03         29.8010   -28.8850   -12.1300 ca         1 YSY       0.018000
      4 C04         29.5660   -29.2680   -13.4630 ca         1 YSY      -0.087000
      5 C05         28.2850   -29.1320   -14.0260 ca         1 YSY      -0.071000
      6 C06         27.2130   -28.6130   -13.2640 ca         1 YSY      -0.128300
      7 C07         27.4640   -28.2280   -11.9290 ca         1 YSY       0.173000
      8 C09         28.7420   -28.3620   -11.3650 ca         1 YSY      -0.117000
      9 C11         25.8320   -27.0610   -14.6410 c5         1 YSY      -0.086400
     10 C12         25.7890   -27.4640   -16.1850 c5         1 YSY      -0.001100
     11 C14         25.0490   -29.9170   -16.9670 cd         1 YSY       0.249900
     12 C16         25.0880   -30.7150   -14.9300 cc         1 YSY       0.407400
     13 F08         26.4680   -27.7160   -11.1710 f          1 YSY      -0.173000
     14 N01         32.1740   -29.1320   -11.0800 n1         1 YSY      -0.433000
     15 N15         24.8330   -31.0600   -16.1980 nd         1 YSY      -0.674000
     16 N17         25.4690   -29.3960   -14.8930 na         1 YSY      -0.184500
     17 H101        25.0400   -28.4590   -13.0810 h1         1 YSY       0.089700
     18 H041        30.3770   -29.6700   -14.0680 ha         1 YSY       0.136000
     19 H051        28.1330   -29.4280   -15.0620 ha         1 YSY       0.141000
     20 H091        28.9060   -28.0580   -10.3340 ha         1 YSY       0.147000
     21 H111        26.7000   -26.4360   -14.3980 hc         1 YSY       0.065200
     22 H112        24.9440   -26.4750   -14.3800 hc         1 YSY       0.065200
     23 H121        26.7610   -27.3130   -16.6690 hc         1 YSY       0.064700
     24 H122        25.0470   -26.8810   -16.7440 hc         1 YSY       0.064700
     25 H141        24.9030   -29.8910   -18.0400 h4         1 YSY       0.041100
     26 H161        25.0190   -31.3400   -14.0470 h5         1 YSY       0.059100
     27 C02         31.1120   -29.0240   -11.5550 cg         1 YSY       0.316000
@<TRIPOS>BOND
     1     1     6 1   
     2     1     9 1   
     3     1    16 1   
     4     1    17 1   
     5     2    10 1   
     6     2    11 2   
     7     2    16 1   
     8     3     4 ar  
     9     3     8 ar  
    10     3    27 1   
    11     4     5 ar  
    12     4    18 1   
    13     5     6 ar  
    14     5    19 1   
    15     6     7 ar  
    16     7     8 ar  
    17     7    13 1   
    18     8    20 1   
    19     9    10 1   
    20     9    21 1   
    21     9    22 1   
    22    10    23 1   
    23    10    24 1   
    24    11    15 1   
    25    11    25 1   
    26    12    15 2   
    27    12    16 1   
    28    12    26 1   
    29    14    27 3   
@<TRIPOS>SUBSTRUCTURE
     1 YSY         1 TEMP              0 ****  ****    0 ROOT
