@<TRIPOS>MOLECULE
YSY
   27    29     1     0     0
SMALL
bcc


@<TRIPOS>ATOM
      1 C10         25.7780   -28.4630   -13.7990 c5         1 YSY       0.105300
      2 C13         25.5320   -28.8220   -16.1180 cc         1 YSY      -0.232900
      3 C03         29.7670   -28.9010   -12.2420 ca         1 YSY       0.018000
      4 C04         29.4410   -29.5050   -13.4520 ca         1 YSY      -0.105000
      5 C05         28.1560   -29.3770   -13.9550 ca         1 YSY      -0.089000
      6 C06         27.1830   -28.6520   -13.2760 ca         1 YSY      -0.128300
      7 C07         27.5530   -28.0590   -12.0750 ca         1 YSY       0.137900
      8 C09         28.8150   -28.1660   -11.5380 ca         1 YSY      -0.135000
      9 C11         25.5860   -27.1010   -14.5150 c5         1 YSY      -0.086400
     10 C12         25.8760   -27.3760   -16.0050 c5         1 YSY      -0.001100
     11 C14         25.2590   -29.8440   -16.9820 cd         1 YSY       0.315200
     12 C16         25.1790   -30.6890   -15.0100 cc         1 YSY       0.407400
     13 F08         26.6390   -27.3460   -11.4060 f          1 YSY      -0.137900
     14 N01         32.1480   -29.1390   -11.2800 n1         1 YSY      -0.343800
     15 N15         25.0390   -30.9990   -16.2750 nd         1 YSY      -0.674000
     16 N17         25.4710   -29.3790   -14.8750 na         1 YSY      -0.205900
     17 H101        25.0600   -28.5870   -12.9880 h1         1 YSY       0.089700
     18 H041        30.1820   -30.0740   -13.9960 ha         1 YSY       0.154000
     19 H051        27.9160   -29.8580   -14.8930 ha         1 YSY       0.159000
     20 H091        29.0520   -27.6910   -10.5950 ha         1 YSY       0.165000
     21 H111        26.2180   -26.3200   -14.0970 hc         1 YSY       0.065200
     22 H112        24.5480   -26.7900   -14.3930 hc         1 YSY       0.065200
     23 H121        26.9270   -27.2010   -16.2470 hc         1 YSY       0.064700
     24 H122        25.2820   -26.7390   -16.6590 hc         1 YSY       0.064700
     25 H141        25.2010   -29.8170   -18.0590 h4         1 YSY       0.041100
     26 H161        25.0750   -31.3600   -14.1710 h5         1 YSY       0.059100
     27 C02         31.0850   -29.0330   -11.7100 cg         1 YSY       0.226800
@<TRIPOS>BOND
     1     1     6 1   
     2     1     9 1   
     3     1    16 1   
     4     1    17 1   
     5     2    10 1   
     6     2    11 2   
     7     2    16 1   
     8     3     4 ar  
     9     3     8 ar  
    10     3    27 1   
    11     4     5 ar  
    12     4    18 1   
    13     5     6 ar  
    14     5    19 1   
    15     6     7 ar  
    16     7     8 ar  
    17     7    13 1   
    18     8    20 1   
    19     9    10 1   
    20     9    21 1   
    21     9    22 1   
    22    10    23 1   
    23    10    24 1   
    24    11    15 1   
    25    11    25 1   
    26    12    15 2   
    27    12    16 1   
    28    12    26 1   
    29    14    27 3   
@<TRIPOS>SUBSTRUCTURE
     1 YSY         1 TEMP              0 ****  ****    0 ROOT
