@<TRIPOS>MOLECULE
YT0
   54    57     1     0     0
SMALL
No Charge or Current Charge


@<TRIPOS>ATOM
      1 C1          18.6030    16.9200    22.3080 c3         1 YT0      -0.126400
      2 C2          18.2840    18.0740    21.4020 cc         1 YT0       0.343300
      3 C3          17.3020    19.0200    21.7820 cc         1 YT0      -0.286000
      4 C4          17.1530    19.9840    20.8420 cd         1 YT0       0.195000
      5 C5          15.9430    22.1090    20.1420 ca         1 YT0       0.406900
      6 C6          14.6670    23.9760    19.8580 ca         1 YT0       0.164900
      7 C7          15.2760    24.2110    18.6120 ca         1 YT0      -0.275300
      8 N1          16.2620    21.0320    20.9560 nu         1 YT0      -0.898900
      9 C8          14.8220    25.4040    17.7760 c3         1 YT0      -0.019800
     10 C9          16.2690    23.2880    18.2040 ca         1 YT0       0.438900
     11 C10         18.0830    22.5480    16.4920 cy         1 YT0       0.226300
     12 C11         18.2070    23.5580    15.2770 cy         1 YT0       0.171200
     13 C12         17.5250    23.1150    13.9380 c3         1 YT0      -0.040300
     14 C13         16.1350    22.6630    14.0930 c1         1 YT0       0.296900
     15 C14         19.7600    25.2500    14.1690 c6         1 YT0       0.176800
     16 C15         21.2380    25.7520    14.1090 c6         1 YT0       0.162300
     17 N2          14.9990    22.9260    20.6280 nb         1 YT0      -0.258000
     18 C16         23.5770    25.1710    13.5390 c3         1 YT0       0.152100
     19 C17         22.0380    23.4590    14.4540 c6         1 YT0       0.162300
     20 C18         20.5630    22.9490    14.5140 c6         1 YT0       0.176800
     21 C19         17.3790    24.5570    16.1890 cy         1 YT0       0.226300
     22 N3          16.9600    23.3840    17.0120 nn         1 YT0      -0.774300
     23 N4          15.0310    22.2990    14.1760 n1         1 YT0      -0.447000
     24 N5          19.6260    24.0120    15.0030 n3         1 YT0      -0.739600
     25 N6          22.1800    24.6960    13.6240 n3         1 YT0      -0.718600
     26 N7          16.5890    22.2350    18.9760 nb         1 YT0      -0.320000
     27 S1          18.2880    19.6240    19.5130 ss         1 YT0       0.338100
     28 N8          18.9040    18.2320    20.2450 nd         1 YT0      -0.556100
     29 H1          19.3800    16.2760    21.8810 hc         1 YT0       0.050700
     30 H2          18.9600    17.2800    23.2800 hc         1 YT0       0.050700
     31 H3          17.7120    16.3060    22.4790 hc         1 YT0       0.050700
     32 H4          16.7510    18.9590    22.7130 ha         1 YT0       0.143000
     33 H5          13.8920    24.6350    20.2470 h4         1 YT0       0.020100
     34 H6          15.7200    21.0190    21.8200 hn         1 YT0       0.520000
     35 H7          14.5400    25.0940    16.7630 hc         1 YT0       0.038700
     36 H8          13.9450    25.8940    18.2160 hc         1 YT0       0.038700
     37 H9          15.6110    26.1610    17.7010 hc         1 YT0       0.038700
     38 H10         17.8230    21.5250    16.1970 h1         1 YT0       0.070950
     39 H11         18.9700    22.5340    17.1370 h1         1 YT0       0.070950
     40 H12         18.0780    22.2940    13.4730 hc         1 YT0       0.077200
     41 H13         17.5130    23.9380    13.2170 hc         1 YT0       0.077200
     42 H14         19.1340    26.0590    14.5720 h1         1 YT0       0.040450
     43 H15         19.4240    25.0630    13.1390 h1         1 YT0       0.040450
     44 H16         21.5310    26.0870    15.1160 h1         1 YT0       0.041950
     45 H17         21.2820    26.6340    13.4530 h1         1 YT0       0.041950
     46 H18         24.2290    24.3870    13.1310 h1         1 YT0       0.032700
     47 H19         23.6490    26.0480    12.8810 h1         1 YT0       0.032700
     48 H20         23.9570    25.4530    14.5300 h1         1 YT0       0.032700
     49 H21         22.6710    22.6550    14.0500 h1         1 YT0       0.041950
     50 H22         22.3810    23.6530    15.4810 h1         1 YT0       0.041950
     51 H23         20.2790    22.6140    13.5070 h1         1 YT0       0.040450
     52 H24         20.5270    22.0690    15.1720 h1         1 YT0       0.040450
     53 H25         18.0080    25.2800    16.7220 h1         1 YT0       0.070950
     54 H26         16.5880    25.0830    15.6440 h1         1 YT0       0.070950
@<TRIPOS>BOND
     1     1     2 1   
     2     1    29 1   
     3     1    30 1   
     4     1    31 1   
     5     2     3 1   
     6     2    28 2   
     7     3     4 2   
     8     3    32 1   
     9     4     8 1   
    10     4    27 1   
    11     5     8 1   
    12     5    17 ar  
    13     5    26 ar  
    14     6     7 ar  
    15     6    17 ar  
    16     6    33 1   
    17     7     9 1   
    18     7    10 ar  
    19     8    34 1   
    20     9    35 1   
    21     9    36 1   
    22     9    37 1   
    23    10    22 1   
    24    10    26 ar  
    25    11    12 1   
    26    11    22 1   
    27    11    38 1   
    28    11    39 1   
    29    12    13 1   
    30    12    21 1   
    31    12    24 1   
    32    13    14 1   
    33    13    40 1   
    34    13    41 1   
    35    14    23 3   
    36    15    16 1   
    37    15    24 1   
    38    15    42 1   
    39    15    43 1   
    40    16    25 1   
    41    16    44 1   
    42    16    45 1   
    43    18    25 1   
    44    18    46 1   
    45    18    47 1   
    46    18    48 1   
    47    19    20 1   
    48    19    25 1   
    49    19    49 1   
    50    19    50 1   
    51    20    24 1   
    52    20    51 1   
    53    20    52 1   
    54    21    22 1   
    55    21    53 1   
    56    21    54 1   
    57    27    28 1   
@<TRIPOS>SUBSTRUCTURE
     1 YT0         1 TEMP              0 ****  ****    0 ROOT
