@<TRIPOS>MOLECULE
YT0
   54    57     1     0     0
SMALL
abcg2


@<TRIPOS>ATOM
      1 C1          18.9670    17.1160    21.4710 c3         1 YT0      -0.126400
      2 C2          18.4180    18.3460    20.8260 cc         1 YT0       0.343300
      3 C3          17.5430    19.2500    21.4810 cc         1 YT0      -0.286000
      4 C4          17.2080    20.2890    20.6530 cd         1 YT0       0.195000
      5 C5          16.0620    22.3870    20.1650 ca         1 YT0       0.406900
      6 C6          14.9430    24.2970    19.8620 ca         1 YT0       0.164900
      7 C7          15.4200    24.4490    18.5780 ca         1 YT0      -0.275300
      8 N1          16.3850    21.3280    20.9710 nu         1 YT0      -0.898900
      9 C8          14.9720    25.5870    17.7150 c3         1 YT0      -0.019800
     10 C9          16.3050    23.4270    18.1570 ca         1 YT0       0.438900
     11 C10         17.9150    22.4730    16.5090 cy         1 YT0       0.226300
     12 C11         18.1300    23.3780    15.2730 cy         1 YT0       0.171200
     13 C12         17.5200    22.7810    13.9830 c3         1 YT0      -0.040300
     14 C13         16.1440    22.3450    14.1490 c1         1 YT0       0.296900
     15 C14         19.6470    24.9680    14.2200 c6         1 YT0       0.176800
     16 C15         21.0510    25.5250    14.3620 c6         1 YT0       0.162300
     17 N2          15.2450    23.2890    20.6830 nb         1 YT0      -0.258000
     18 C16         23.3810    25.0220    14.1420 c3         1 YT0       0.152100
     19 C17         21.8550    23.3670    14.9610 c6         1 YT0       0.162300
     20 C18         20.4540    22.8000    14.8220 c6         1 YT0       0.176800
     21 C19         17.2010    24.4080    15.9570 cy         1 YT0       0.226300
     22 N3          16.8730    23.3860    16.9420 nn         1 YT0      -0.774300
     23 N4          15.0540    22.0010    14.2780 n1         1 YT0      -0.447000
     24 N5          19.4800    23.8360    15.1140 n3         1 YT0      -0.739600
     25 N6          22.0360    24.5010    14.0770 n3         1 YT0      -0.718600
     26 N7          16.6030    22.4030    18.9610 nb         1 YT0      -0.320000
     27 S1          18.0000    20.0670    19.1320 ss         1 YT0       0.338100
     28 N8          18.7370    18.6480    19.5950 nd         1 YT0      -0.556100
     29 H1          19.6550    16.6010    20.8040 hc         1 YT0       0.050700
     30 H2          19.4980    17.3650    22.3910 hc         1 YT0       0.050700
     31 H3          18.1660    16.4270    21.7390 hc         1 YT0       0.050700
     32 H4          17.1890    19.1400    22.4960 ha         1 YT0       0.143000
     33 H5          14.2600    25.0410    20.2600 h4         1 YT0       0.020100
     34 H6          15.9770    21.3320    21.8950 hn         1 YT0       0.520000
     35 H7          14.4980    25.2410    16.7950 hc         1 YT0       0.038700
     36 H8          14.2360    26.1900    18.2470 hc         1 YT0       0.038700
     37 H9          15.7870    26.2550    17.4340 hc         1 YT0       0.038700
     38 H10         17.5840    21.4480    16.3290 h1         1 YT0       0.070950
     39 H11         18.7780    22.4550    17.1790 h1         1 YT0       0.070950
     40 H12         18.1030    21.9170    13.6530 hc         1 YT0       0.077200
     41 H13         17.5390    23.5150    13.1740 hc         1 YT0       0.077200
     42 H14         18.9280    25.7490    14.4760 h1         1 YT0       0.040450
     43 H15         19.4770    24.7000    13.1660 h1         1 YT0       0.040450
     44 H16         21.1730    25.9390    15.3780 h1         1 YT0       0.041950
     45 H17         21.1790    26.3510    13.6580 h1         1 YT0       0.041950
     46 H18         24.0980    24.2430    13.8770 h1         1 YT0       0.032700
     47 H19         23.5010    25.8410    13.4310 h1         1 YT0       0.032700
     48 H20         23.6520    25.4010    15.1400 h1         1 YT0       0.032700
     49 H21         22.5800    22.5920    14.7010 h1         1 YT0       0.041950
     50 H22         22.0300    23.6380    16.0160 h1         1 YT0       0.041950
     51 H23         20.3380    22.3890    13.8070 h1         1 YT0       0.040450
     52 H24         20.3350    21.9730    15.5250 h1         1 YT0       0.040450
     53 H25         17.7500    25.2530    16.3770 h1         1 YT0       0.070950
     54 H26         16.3620    24.7790    15.3680 h1         1 YT0       0.070950
@<TRIPOS>BOND
     1     1     2 1   
     2     1    29 1   
     3     1    30 1   
     4     1    31 1   
     5     2     3 1   
     6     2    28 2   
     7     3     4 2   
     8     3    32 1   
     9     4     8 1   
    10     4    27 1   
    11     5     8 1   
    12     5    17 ar  
    13     5    26 ar  
    14     6     7 ar  
    15     6    17 ar  
    16     6    33 1   
    17     7     9 1   
    18     7    10 ar  
    19     8    34 1   
    20     9    35 1   
    21     9    36 1   
    22     9    37 1   
    23    10    22 1   
    24    10    26 ar  
    25    11    12 1   
    26    11    22 1   
    27    11    38 1   
    28    11    39 1   
    29    12    13 1   
    30    12    21 1   
    31    12    24 1   
    32    13    14 1   
    33    13    40 1   
    34    13    41 1   
    35    14    23 3   
    36    15    16 1   
    37    15    24 1   
    38    15    42 1   
    39    15    43 1   
    40    16    25 1   
    41    16    44 1   
    42    16    45 1   
    43    18    25 1   
    44    18    46 1   
    45    18    47 1   
    46    18    48 1   
    47    19    20 1   
    48    19    25 1   
    49    19    49 1   
    50    19    50 1   
    51    20    24 1   
    52    20    51 1   
    53    20    52 1   
    54    21    22 1   
    55    21    53 1   
    56    21    54 1   
    57    27    28 1   
@<TRIPOS>SUBSTRUCTURE
     1 YT0         1 TEMP              0 ****  ****    0 ROOT
