@<TRIPOS>MOLECULE
YT1
   65    68     1     0     0
SMALL
abcg2


@<TRIPOS>ATOM
      1 C4          -4.7880   -30.3240    34.0570 c6         1 YT1      -0.075400
      2 C14         -0.0330   -18.7480    29.2660 c6         1 YT1      -0.072400
      3 C5          -4.4960   -29.1390    33.1580 c6         1 YT1      -0.072400
      4 C6          -3.3820   -29.4400    32.1540 c6         1 YT1      -0.011400
      5 C11         -1.0230   -23.0650    31.3920 c6         1 YT1       0.174300
      6 C7          -3.3940   -28.4070    31.0190 c3         1 YT1      -0.073400
      7 C8          -3.1290   -26.9780    31.4820 c3         1 YT1      -0.077400
      8 C9          -3.0590   -26.0240    30.2960 c3         1 YT1       0.166800
      9 C10         -1.3400   -24.5050    31.0300 c6         1 YT1       0.162800
     10 C12         -0.8210   -20.8310    30.4440 c6         1 YT1       0.193500
     11 C13         -0.7150   -20.1040    29.1040 c6         1 YT1      -0.088400
     12 N1          -1.3260   -22.1890    30.2800 n3         1 YT1      -0.738600
     13 C3          -5.2840   -31.4950    33.2250 c6         1 YT1      -0.021100
     14 N           -2.7340   -24.6550    30.6520 n3         1 YT1      -0.715600
     15 C           -5.2990   -35.2780    31.5530 c3         1 YT1       0.149900
     16 C1          -4.3420   -33.1020    31.5340 ca         1 YT1       0.138100
     17 C15         -0.7530   -17.8810    30.2940 c6         1 YT1      -0.076400
     18 C16         -0.8830   -18.6070    31.6290 c6         1 YT1      -0.072400
     19 C17         -1.5710   -19.9590    31.4590 c6         1 YT1      -0.088400
     20 C18         -2.7280   -22.3110    29.9360 c6         1 YT1       0.174300
     21 C19         -3.0460   -23.7470    29.5630 c6         1 YT1       0.162800
     22 C2          -4.3380   -31.8100    32.0960 ca         1 YT1      -0.097300
     23 C20         -3.4300   -30.8640    31.6190 ca         1 YT1      -0.035300
     24 C21         -2.5030   -31.2420    30.6390 ca         1 YT1      -0.148000
     25 C22         -2.5040   -32.5180    30.1170 ca         1 YT1      -0.077000
     26 C23         -3.4310   -33.4590    30.5500 ca         1 YT1      -0.199000
     27 H1          -3.8820   -30.6150    34.5980 hc         1 YT1       0.042200
     28 H2          -5.5340   -30.0610    34.8100 hc         1 YT1       0.042200
     29 H4           0.0140   -18.2350    28.3030 hc         1 YT1       0.038450
     30 H5          -4.2230   -28.2650    33.7510 hc         1 YT1       0.042700
     31 H6          -5.4120   -28.8710    32.6170 hc         1 YT1       0.042700
     32 H7          -2.4230   -29.3380    32.6790 hc         1 YT1       0.053700
     33 H8           0.0410   -22.9900    31.6290 h1         1 YT1       0.036700
     34 H9          -1.5780   -22.7990    32.3070 h1         1 YT1       0.036700
     35 H10         -4.3570   -28.4590    30.5000 hc         1 YT1       0.042200
     36 H11         -2.6360   -28.6590    30.2730 hc         1 YT1       0.042200
     37 H12         -2.1930   -26.9650    32.0490 hc         1 YT1       0.046200
     38 H13         -3.9090   -26.6310    32.1630 hc         1 YT1       0.046200
     39 H14         -4.0380   -26.0180    29.8070 h1         1 YT1       0.028700
     40 H15         -2.3490   -26.4190    29.5470 h1         1 YT1       0.028700
     41 H16         -1.1190   -25.1360    31.8920 h1         1 YT1       0.036450
     42 H17         -0.6690   -24.8240    30.2130 h1         1 YT1       0.036450
     43 H18          0.2060   -20.9480    30.8160 h1         1 YT1       0.051700
     44 H19         -1.7120   -19.9490    28.6760 hc         1 YT1       0.043450
     45 H20         -0.1620   -20.7280    28.3970 hc         1 YT1       0.043450
     46 H22         -6.2790   -31.2630    32.8300 hc         1 YT1       0.053700
     47 H23         -5.4130   -32.3730    33.8600 hc         1 YT1       0.053700
     48 H25         -6.0980   -35.7820    32.0940 h1         1 YT1       0.039033
     49 H26         -5.5130   -35.3320    30.4820 h1         1 YT1       0.039033
     50 H27         -4.3590   -35.8010    31.7490 h1         1 YT1       0.039033
     51 H28         -0.2260   -16.9330    30.4260 hc         1 YT1       0.038700
     52 H29         -1.7520   -17.6330    29.9200 hc         1 YT1       0.038700
     53 H30          0.1140   -18.7580    32.0570 hc         1 YT1       0.038450
     54 H31         -1.4360   -17.9920    32.3430 hc         1 YT1       0.038450
     55 H32         -2.5990   -19.7940    31.1190 hc         1 YT1       0.043450
     56 H33         -1.6390   -20.4690    32.4240 hc         1 YT1       0.043450
     57 H34         -2.9620   -21.6730    29.0810 h1         1 YT1       0.036700
     58 H35         -3.3930   -22.0040    30.7590 h1         1 YT1       0.036700
     59 H36         -4.1100   -23.8280    29.3270 h1         1 YT1       0.036450
     60 H37         -2.4890   -24.0080    28.6450 h1         1 YT1       0.036450
     61 H38         -1.7660   -30.5310    30.2880 ha         1 YT1       0.112000
     62 H39         -1.7800   -32.7960    29.3610 ha         1 YT1       0.110000
     63 H40         -3.4210   -34.4510    30.1190 ha         1 YT1       0.116000
     64 O           -5.2740   -33.9480    32.0240 os         1 YT1      -0.346100
     65 H3           1.0040   -18.9000    29.5850 hc         1 YT1       0.038450
@<TRIPOS>BOND
     1     1     3 1   
     2     1    13 1   
     3     1    27 1   
     4     1    28 1   
     5     2    11 1   
     6     2    17 1   
     7     2    29 1   
     8     2    65 1   
     9     3     4 1   
    10     3    30 1   
    11     3    31 1   
    12     4     6 1   
    13     4    23 1   
    14     4    32 1   
    15     5     9 1   
    16     5    12 1   
    17     5    33 1   
    18     5    34 1   
    19     6     7 1   
    20     6    35 1   
    21     6    36 1   
    22     7     8 1   
    23     7    37 1   
    24     7    38 1   
    25     8    14 1   
    26     8    39 1   
    27     8    40 1   
    28     9    14 1   
    29     9    41 1   
    30     9    42 1   
    31    10    11 1   
    32    10    12 1   
    33    10    19 1   
    34    10    43 1   
    35    11    44 1   
    36    11    45 1   
    37    12    20 1   
    38    13    22 1   
    39    13    46 1   
    40    13    47 1   
    41    14    21 1   
    42    15    48 1   
    43    15    49 1   
    44    15    50 1   
    45    15    64 1   
    46    16    22 ar  
    47    16    26 ar  
    48    16    64 1   
    49    17    18 1   
    50    17    51 1   
    51    17    52 1   
    52    18    19 1   
    53    18    53 1   
    54    18    54 1   
    55    19    55 1   
    56    19    56 1   
    57    20    21 1   
    58    20    57 1   
    59    20    58 1   
    60    21    59 1   
    61    21    60 1   
    62    22    23 ar  
    63    23    24 ar  
    64    24    25 ar  
    65    24    61 1   
    66    25    26 ar  
    67    25    62 1   
    68    26    63 1   
@<TRIPOS>SUBSTRUCTURE
     1 YT1         1 TEMP              0 ****  ****    0 ROOT
