@<TRIPOS>MOLECULE
YT1
   65    68     1     0     0
SMALL
No Charge or Current Charge


@<TRIPOS>ATOM
      1 C4          -4.3360   -30.2840    34.1700 c6         1 YT1      -0.075400
      2 C14         -0.1880   -18.3380    29.5770 c6         1 YT1      -0.072400
      3 C5          -4.0800   -29.1560    33.1600 c6         1 YT1      -0.072400
      4 C6          -3.1480   -29.6200    32.0050 c6         1 YT1      -0.011400
      5 C11         -0.9660   -22.9580    31.4400 c6         1 YT1       0.174300
      6 C7          -3.1460   -28.5650    30.8440 c3         1 YT1      -0.073400
      7 C8          -2.7630   -27.1190    31.2490 c3         1 YT1      -0.077400
      8 C9          -2.6630   -26.1640    30.0360 c3         1 YT1       0.166800
      9 C10         -1.1520   -24.4680    31.0840 c6         1 YT1       0.162800
     10 C12         -0.8040   -20.6320    30.5420 c6         1 YT1       0.193500
     11 C13         -0.6040   -19.7930    29.2460 c6         1 YT1      -0.088400
     12 N1          -1.0840   -22.0720    30.2380 n3         1 YT1      -0.738600
     13 C3          -5.0700   -31.4440    33.4780 c6         1 YT1      -0.021100
     14 N           -2.4500   -24.7380    30.3830 n3         1 YT1      -0.715600
     15 C           -5.9250   -35.3160    31.9170 c3         1 YT1       0.149900
     16 C1          -4.6560   -33.2020    31.6840 ca         1 YT1       0.138100
     17 C15         -1.2280   -17.6590    30.5020 c6         1 YT1      -0.076400
     18 C16         -1.4550   -18.4860    31.7910 c6         1 YT1      -0.072400
     19 C17         -1.8620   -19.9450    31.4620 c6         1 YT1      -0.088400
     20 C18         -2.3860   -22.3330    29.5390 c6         1 YT1       0.174300
     21 C19         -2.5700   -23.8460    29.1880 c6         1 YT1       0.162800
     22 C2          -4.3770   -31.9080    32.1870 ca         1 YT1      -0.097300
     23 C20         -3.4640   -31.0570    31.5020 ca         1 YT1      -0.035300
     24 C21         -2.7930   -31.5630    30.3660 ca         1 YT1      -0.148000
     25 C22         -3.0610   -32.8500    29.8800 ca         1 YT1      -0.077000
     26 C23         -3.9980   -33.6650    30.5260 ca         1 YT1      -0.199000
     27 H1          -3.3830   -30.6360    34.5890 hc         1 YT1       0.042200
     28 H2          -4.9350   -29.9100    35.0120 hc         1 YT1       0.042200
     29 H4          -0.0820   -17.7600    28.6490 hc         1 YT1       0.038450
     30 H5          -3.6350   -28.3000    33.6850 hc         1 YT1       0.042700
     31 H6          -5.0410   -28.8100    32.7540 hc         1 YT1       0.042700
     32 H7          -2.1220   -29.6400    32.3970 hc         1 YT1       0.053700
     33 H8           0.0180   -22.8280    31.9140 h1         1 YT1       0.036700
     34 H9          -1.7240   -22.6940    32.1910 h1         1 YT1       0.036700
     35 H10         -4.1350   -28.5450    30.3690 hc         1 YT1       0.042200
     36 H11         -2.4430   -28.8640    30.0610 hc         1 YT1       0.042200
     37 H12         -1.8050   -27.1460    31.7790 hc         1 YT1       0.046200
     38 H13         -3.5110   -26.7180    31.9430 hc         1 YT1       0.046200
     39 H14         -3.5990   -26.2550    29.4680 h1         1 YT1       0.028700
     40 H15         -1.8560   -26.5140    29.3780 h1         1 YT1       0.028700
     41 H16         -1.0880   -25.0430    32.0180 h1         1 YT1       0.036450
     42 H17         -0.3090   -24.7860    30.4520 h1         1 YT1       0.036450
     43 H18          0.1560   -20.5900    31.0810 h1         1 YT1       0.051700
     44 H19         -1.5280   -19.7700    28.6530 hc         1 YT1       0.043450
     45 H20          0.1640   -20.2600    28.6150 hc         1 YT1       0.043450
     46 H22         -6.1000   -31.1400    33.2420 hc         1 YT1       0.053700
     47 H23         -5.1520   -32.2760    34.1910 hc         1 YT1       0.053700
     48 H25         -6.6720   -35.7530    32.5920 h1         1 YT1       0.039033
     49 H26         -6.3510   -35.2960    30.9060 h1         1 YT1       0.039033
     50 H27         -5.0440   -35.9700    31.9170 h1         1 YT1       0.039033
     51 H28         -0.8900   -16.6470    30.7630 hc         1 YT1       0.038700
     52 H29         -2.1800   -17.5420    29.9660 hc         1 YT1       0.038700
     53 H30         -0.5370   -18.4870    32.3970 hc         1 YT1       0.038450
     54 H31         -2.2320   -18.0120    32.4050 hc         1 YT1       0.038450
     55 H32         -2.8470   -19.9400    30.9770 hc         1 YT1       0.043450
     56 H33         -1.9770   -20.4990    32.4030 hc         1 YT1       0.043450
     57 H34         -2.4540   -21.7600    28.6040 h1         1 YT1       0.036700
     58 H35         -3.2320   -22.0260    30.1710 h1         1 YT1       0.036700
     59 H36         -3.5540   -23.9750    28.7150 h1         1 YT1       0.036450
     60 H37         -1.8160   -24.1220    28.4360 h1         1 YT1       0.036450
     61 H38         -2.0460   -30.9680    29.8500 ha         1 YT1       0.112000
     62 H39         -2.5380   -33.2160    28.9980 ha         1 YT1       0.110000
     63 H40         -4.1880   -34.6540    30.1210 ha         1 YT1       0.116000
     64 O           -5.5780   -33.9900    32.3530 os         1 YT1      -0.346100
     65 H3           0.7980   -18.3350    30.0610 hc         1 YT1       0.038450
@<TRIPOS>BOND
     1     1     3 1   
     2     1    13 1   
     3     1    27 1   
     4     1    28 1   
     5     2    11 1   
     6     2    17 1   
     7     2    29 1   
     8     2    65 1   
     9     3     4 1   
    10     3    30 1   
    11     3    31 1   
    12     4     6 1   
    13     4    23 1   
    14     4    32 1   
    15     5     9 1   
    16     5    12 1   
    17     5    33 1   
    18     5    34 1   
    19     6     7 1   
    20     6    35 1   
    21     6    36 1   
    22     7     8 1   
    23     7    37 1   
    24     7    38 1   
    25     8    14 1   
    26     8    39 1   
    27     8    40 1   
    28     9    14 1   
    29     9    41 1   
    30     9    42 1   
    31    10    11 1   
    32    10    12 1   
    33    10    19 1   
    34    10    43 1   
    35    11    44 1   
    36    11    45 1   
    37    12    20 1   
    38    13    22 1   
    39    13    46 1   
    40    13    47 1   
    41    14    21 1   
    42    15    48 1   
    43    15    49 1   
    44    15    50 1   
    45    15    64 1   
    46    16    22 ar  
    47    16    26 ar  
    48    16    64 1   
    49    17    18 1   
    50    17    51 1   
    51    17    52 1   
    52    18    19 1   
    53    18    53 1   
    54    18    54 1   
    55    19    55 1   
    56    19    56 1   
    57    20    21 1   
    58    20    57 1   
    59    20    58 1   
    60    21    59 1   
    61    21    60 1   
    62    22    23 ar  
    63    23    24 ar  
    64    24    25 ar  
    65    24    61 1   
    66    25    26 ar  
    67    25    62 1   
    68    26    63 1   
@<TRIPOS>SUBSTRUCTURE
     1 YT1         1 TEMP              0 ****  ****    0 ROOT
