@<TRIPOS>MOLECULE
YT4
   33    33     1     0     0
SMALL
abcg2


@<TRIPOS>ATOM
      1 CAB         -0.3670     1.5570   -16.1420 c3         1 YT4       0.151900
      2 OAA         -1.6330     0.8720   -16.0140 os         1 YT4      -0.440100
      3 C           -1.5980    -0.3540   -15.5070 c          1 YT4       0.563100
      4 O           -0.5870    -0.9280   -15.1700 o          1 YT4      -0.480000
      5 CA          -2.9840    -1.0010   -15.3890 c3         1 YT4       0.082700
      6 CB          -3.0570    -2.1860   -16.3500 c3         1 YT4       0.068600
      7 SG          -4.6360    -3.0860   -16.0950 sh         1 YT4      -0.419800
      8 N           -4.0870    -0.0980   -15.6090 ns         1 YT4      -0.475900
      9 CAI         -4.4380     0.8130   -14.6680 c          1 YT4       0.639100
     10 OAJ         -3.9930     0.8460   -13.5340 o          1 YT4      -0.538000
     11 OAK         -5.3600     1.6680   -15.1500 os         1 YT4      -0.458100
     12 CAL         -5.8300     2.6870   -14.2240 c3         1 YT4       0.231900
     13 CAM         -6.7960     3.5590   -14.9650 ca         1 YT4      -0.102300
     14 CAN         -6.3290     4.5620   -15.8150 ca         1 YT4      -0.083000
     15 CAO         -7.2210     5.3600   -16.5200 ca         1 YT4      -0.116000
     16 CAP         -8.5930     5.1650   -16.3770 ca         1 YT4      -0.097000
     17 CAR         -9.0660     4.1710   -15.5270 ca         1 YT4      -0.116000
     18 CAQ         -8.1700     3.3710   -14.8260 ca         1 YT4      -0.083000
     19 H1          -0.6080     2.5320   -16.5550 h1         1 YT4       0.053033
     20 H2           0.1010     1.6570   -15.1640 h1         1 YT4       0.053033
     21 H3           0.2880     1.0050   -16.8130 h1         1 YT4       0.053033
     22 H4          -3.0450    -1.3690   -14.3650 h1         1 YT4       0.120700
     23 H5          -2.2290    -2.8580   -16.1470 h1         1 YT4       0.077700
     24 H6          -2.9950    -1.8400   -17.3820 h1         1 YT4       0.077700
     25 H7          -4.2570    -4.2120   -16.7230 hs         1 YT4       0.209800
     26 H8          -4.3830     0.0780   -16.5580 hn         1 YT4       0.333500
     27 H9          -6.3050     2.1950   -13.3770 h1         1 YT4       0.059700
     28 H10         -4.9680     3.2520   -13.8700 h1         1 YT4       0.059700
     29 H11         -5.2610     4.7170   -15.9210 ha         1 YT4       0.115500
     30 H12         -6.8490     6.1370   -17.1760 ha         1 YT4       0.114500
     31 H13         -9.2890     5.7900   -16.9230 ha         1 YT4       0.114000
     32 H14        -10.1320     4.0190   -15.4100 ha         1 YT4       0.114500
     33 H15         -8.5380     2.5960   -14.1640 ha         1 YT4       0.115500
@<TRIPOS>BOND
     1     1     2 1   
     2     1    19 1   
     3     1    20 1   
     4     1    21 1   
     5     2     3 1   
     6     3     4 2   
     7     3     5 1   
     8     5     6 1   
     9     5     8 1   
    10     5    22 1   
    11     6     7 1   
    12     6    23 1   
    13     6    24 1   
    14     7    25 1   
    15     8     9 1   
    16     8    26 1   
    17     9    10 2   
    18     9    11 1   
    19    11    12 1   
    20    12    13 1   
    21    12    27 1   
    22    12    28 1   
    23    13    14 ar  
    24    13    18 ar  
    25    14    15 ar  
    26    14    29 1   
    27    15    16 ar  
    28    15    30 1   
    29    16    17 ar  
    30    16    31 1   
    31    17    18 ar  
    32    17    32 1   
    33    18    33 1   
@<TRIPOS>SUBSTRUCTURE
     1 YT4         1 TEMP              0 ****  ****    0 ROOT
