@<TRIPOS>MOLECULE
YT4
   33    33     1     0     0
SMALL
No Charge or Current Charge


@<TRIPOS>ATOM
      1 CAB          0.0020     0.6970   -17.4690 c3         1 YT4       0.151900
      2 OAA         -1.2210     0.1880   -16.9050 os         1 YT4      -0.440100
      3 C           -1.2430    -0.1020   -15.5620 c          1 YT4       0.563100
      4 O           -0.3000     0.0850   -14.8030 o          1 YT4      -0.480000
      5 CA          -2.6290    -0.6030   -15.0980 c3         1 YT4       0.082700
      6 CB          -3.0220    -1.9180   -15.8140 c3         1 YT4       0.068600
      7 SG          -4.6690    -2.6180   -15.3090 sh         1 YT4      -0.419800
      8 N           -3.6400     0.4620   -15.2890 ns         1 YT4      -0.475900
      9 CAI         -4.5850     0.8190   -14.3710 c          1 YT4       0.639100
     10 OAJ         -4.6780     0.3640   -13.2420 o          1 YT4      -0.538000
     11 OAK         -5.3580     1.8050   -14.9000 os         1 YT4      -0.458100
     12 CAL         -6.4060     2.3390   -14.0750 c3         1 YT4       0.231900
     13 CAM         -7.1390     3.4140   -14.8670 ca         1 YT4      -0.102300
     14 CAN         -6.7180     4.7580   -14.7990 ca         1 YT4      -0.083000
     15 CAO         -7.3950     5.7500   -15.5290 ca         1 YT4      -0.116000
     16 CAP         -8.4960     5.4060   -16.3320 ca         1 YT4      -0.097000
     17 CAR         -8.9180     4.0680   -16.4060 ca         1 YT4      -0.116000
     18 CAQ         -8.2410     3.0750   -15.6760 ca         1 YT4      -0.083000
     19 H1          -0.1210     0.8810   -18.5440 h1         1 YT4       0.053033
     20 H2           0.2890     1.6440   -16.9940 h1         1 YT4       0.053033
     21 H3           0.8230    -0.0200   -17.3390 h1         1 YT4       0.053033
     22 H4          -2.5320    -0.8140   -14.0250 h1         1 YT4       0.120700
     23 H5          -2.2520    -2.6760   -15.6190 h1         1 YT4       0.077700
     24 H6          -3.0500    -1.7440   -16.8980 h1         1 YT4       0.077700
     25 H7          -4.6330    -3.6960   -16.1310 hs         1 YT4       0.209800
     26 H8          -3.6780     0.9510   -16.1750 hn         1 YT4       0.333500
     27 H9          -7.1140     1.5500   -13.7850 h1         1 YT4       0.059700
     28 H10         -5.9950     2.7760   -13.1550 h1         1 YT4       0.059700
     29 H11         -5.8660     5.0330   -14.1810 ha         1 YT4       0.115500
     30 H12         -7.0670     6.7860   -15.4720 ha         1 YT4       0.114500
     31 H13         -9.0190     6.1750   -16.8970 ha         1 YT4       0.114000
     32 H14         -9.7690     3.8000   -17.0290 ha         1 YT4       0.114500
     33 H15         -8.5730     2.0400   -15.7410 ha         1 YT4       0.115500
@<TRIPOS>BOND
     1     1     2 1   
     2     1    19 1   
     3     1    20 1   
     4     1    21 1   
     5     2     3 1   
     6     3     4 2   
     7     3     5 1   
     8     5     6 1   
     9     5     8 1   
    10     5    22 1   
    11     6     7 1   
    12     6    23 1   
    13     6    24 1   
    14     7    25 1   
    15     8     9 1   
    16     8    26 1   
    17     9    10 2   
    18     9    11 1   
    19    11    12 1   
    20    12    13 1   
    21    12    27 1   
    22    12    28 1   
    23    13    14 ar  
    24    13    18 ar  
    25    14    15 ar  
    26    14    29 1   
    27    15    16 ar  
    28    15    30 1   
    29    16    17 ar  
    30    16    31 1   
    31    17    18 ar  
    32    17    32 1   
    33    18    33 1   
@<TRIPOS>SUBSTRUCTURE
     1 YT4         1 TEMP              0 ****  ****    0 ROOT
