@<TRIPOS>MOLECULE
YT5
   64    65     1     0     0
SMALL
No Charge or Current Charge


@<TRIPOS>ATOM
      1 CAI          7.2510    -7.9520    20.9740 c3         1 YT5      -0.082100
      2 CAD          8.4440    -6.9760    20.8400 c5         1 YT5      -0.139700
      3 CAC          8.2500    -6.0400    19.6280 c          1 YT5       0.570000
      4 OAG          7.5390    -5.0590    19.4910 o          1 YT5      -0.497000
      5 NAB          9.2000    -6.4410    18.7510 ns         1 YT5      -0.474500
      6 CAA         10.1070    -7.3920    19.0720 c          1 YT5       0.587000
      7 OAF         10.8710    -7.9270    18.2890 o          1 YT5      -0.493000
      8 CAE          9.8070    -7.7120    20.5300 c5         1 YT5      -0.263700
      9 C           10.9820    -7.0640    21.2830 c          1 YT5       0.572100
     10 O           11.1340    -5.8490    21.3450 o          1 YT5      -0.487100
     11 CA          11.9930    -8.0430    21.9520 c3         1 YT5       0.017700
     12 CB          12.7290    -7.4450    23.1940 c3         1 YT5      -0.067700
     13 CG2         13.8710    -8.3560    23.7080 c3         1 YT5      -0.089100
     14 CG1         11.7420    -7.1240    24.3440 c3         1 YT5      -0.089100
     15 N           12.9460    -8.5150    20.9200 ns         1 YT5      -0.511900
     16 CAQ         12.8740    -9.7350    20.2790 c          1 YT5       0.602100
     17 OAS         11.9740   -10.5310    20.4950 o          1 YT5      -0.597100
     18 CAR         13.9490    -9.9820    19.2240 c3         1 YT5      -0.167400
     19 CAT         14.9260   -11.1010    19.6420 c3         1 YT5       0.172000
     20 CBB         15.8770   -11.4810    18.5090 ca         1 YT5      -0.106300
     21 CBC         15.9100   -12.8080    18.0330 ca         1 YT5      -0.094000
     22 CBD         16.7830   -13.1710    16.9930 ca         1 YT5      -0.110000
     23 CBE         17.6350   -12.2120    16.4210 ca         1 YT5      -0.103000
     24 CBF         17.6130   -10.8890    16.8910 ca         1 YT5      -0.110000
     25 CBG         16.7400   -10.5240    17.9310 ca         1 YT5      -0.094000
     26 NAU         15.6940   -10.7320    20.8310 ns         1 YT5      -0.513900
     27 CAV         15.4560   -11.1970    22.1000 c          1 YT5       0.606300
     28 OBH         14.5450   -11.9650    22.3650 o          1 YT5      -0.599100
     29 CAW         16.4060   -10.6840    23.1200 ce         1 YT5      -0.307200
     30 CAX         16.3570   -10.9870    24.4480 cf         1 YT5      -0.087000
     31 CAY         17.2870   -10.4670    25.4390 cf         1 YT5      -0.222000
     32 CAZ         17.2290   -10.7620    26.7560 c2         1 YT5      -0.168200
     33 CBA         18.1810   -10.2340    27.8080 c3         1 YT5      -0.066900
     34 H1           6.3110    -7.4090    21.1310 hc         1 YT5       0.055367
     35 H2           7.1350    -8.5690    20.0750 hc         1 YT5       0.055367
     36 H3           7.3900    -8.6280    21.8270 hc         1 YT5       0.055367
     37 H4           8.4480    -6.3710    21.7560 hc         1 YT5       0.087700
     38 H5           9.2390    -6.0130    17.8380 hn         1 YT5       0.347500
     39 H6           9.8240    -8.7960    20.6770 hc         1 YT5       0.114700
     40 H7          11.4100    -8.9030    22.3070 h1         1 YT5       0.099700
     41 H8          13.1970    -6.5000    22.8900 hc         1 YT5       0.060700
     42 H9          14.3230    -7.9410    24.6170 hc         1 YT5       0.040867
     43 H10         13.4970    -9.3600    23.9390 hc         1 YT5       0.040867
     44 H11         14.6670    -8.4440    22.9600 hc         1 YT5       0.040867
     45 H12         12.2710    -6.6770    25.1950 hc         1 YT5       0.040867
     46 H13         10.9710    -6.4130    24.0250 hc         1 YT5       0.040867
     47 H14         11.2420    -8.0350    24.6960 hc         1 YT5       0.040867
     48 H15         13.7210    -7.9130    20.6630 hn         1 YT5       0.319500
     49 H16         14.5110    -9.0600    19.0380 hc         1 YT5       0.072200
     50 H17         13.4500   -10.2960    18.3010 hc         1 YT5       0.072200
     51 H18         14.3220   -11.9890    19.8800 h1         1 YT5       0.103700
     52 H19         15.2570   -13.5630    18.4670 ha         1 YT5       0.112000
     53 H20         16.8010   -14.1970    16.6310 ha         1 YT5       0.114000
     54 H21         18.3110   -12.4930    15.6170 ha         1 YT5       0.114000
     55 H22         18.2740   -10.1450    16.4510 ha         1 YT5       0.114000
     56 H23         16.7390    -9.4960    18.2870 ha         1 YT5       0.112000
     57 H24         16.4920   -10.1220    20.7120 hn         1 YT5       0.304500
     58 H25         17.1830   -10.0130    22.7620 ha         1 YT5       0.172000
     59 H27         15.5690   -11.6590    24.8030 ha         1 YT5       0.195000
     60 H29         18.0730    -9.7980    25.0790 ha         1 YT5       0.173000
     61 H31         16.4500   -11.4280    27.1340 ha         1 YT5       0.173000
     62 H33         19.2130   -10.5310    27.5890 hc         1 YT5       0.046700
     63 H34         18.1480    -9.1390    27.8550 hc         1 YT5       0.046700
     64 H35         17.9250   -10.6200    28.8020 hc         1 YT5       0.046700
@<TRIPOS>BOND
     1     1     2 1   
     2     1    34 1   
     3     1    35 1   
     4     1    36 1   
     5     2     3 1   
     6     2     8 1   
     7     2    37 1   
     8     3     4 2   
     9     3     5 1   
    10     5     6 1   
    11     5    38 1   
    12     6     7 2   
    13     6     8 1   
    14     8     9 1   
    15     8    39 1   
    16     9    10 2   
    17     9    11 1   
    18    11    12 1   
    19    11    15 1   
    20    11    40 1   
    21    12    13 1   
    22    12    14 1   
    23    12    41 1   
    24    13    42 1   
    25    13    43 1   
    26    13    44 1   
    27    14    45 1   
    28    14    46 1   
    29    14    47 1   
    30    15    16 1   
    31    15    48 1   
    32    16    17 2   
    33    16    18 1   
    34    18    19 1   
    35    18    49 1   
    36    18    50 1   
    37    19    20 1   
    38    19    26 1   
    39    19    51 1   
    40    20    21 ar  
    41    20    25 ar  
    42    21    22 ar  
    43    21    52 1   
    44    22    23 ar  
    45    22    53 1   
    46    23    24 ar  
    47    23    54 1   
    48    24    25 ar  
    49    24    55 1   
    50    25    56 1   
    51    26    27 1   
    52    26    57 1   
    53    27    28 2   
    54    27    29 1   
    55    29    30 2   
    56    29    58 1   
    57    30    31 1   
    58    30    59 1   
    59    31    32 2   
    60    31    60 1   
    61    32    33 1   
    62    32    61 1   
    63    33    62 1   
    64    33    63 1   
    65    33    64 1   
@<TRIPOS>SUBSTRUCTURE
     1 YT5         1 TEMP              0 ****  ****    0 ROOT
