@<TRIPOS>MOLECULE
YT5
   64    65     1     0     0
SMALL
abcg2


@<TRIPOS>ATOM
      1 CAI          8.1650    -8.6870    20.7000 c3         1 YT5      -0.082100
      2 CAD          8.6980    -7.2570    20.6520 c5         1 YT5      -0.139700
      3 CAC          7.7640    -6.3320    19.8830 c          1 YT5       0.570000
      4 OAG          6.5880    -6.1460    20.1020 o          1 YT5      -0.497000
      5 NAB          8.4800    -5.7340    18.8670 ns         1 YT5      -0.474500
      6 CAA          9.8000    -6.1200    18.7930 c          1 YT5       0.587000
      7 OAF         10.5920    -5.7400    17.9620 o          1 YT5      -0.493000
      8 CAE         10.0590    -7.0990    19.9260 c5         1 YT5      -0.263700
      9 C           11.1210    -6.5840    20.8860 c          1 YT5       0.572100
     10 O           11.3590    -5.4050    21.0040 o          1 YT5      -0.487100
     11 CA          11.8600    -7.6690    21.6760 c3         1 YT5       0.017700
     12 CB          12.5020    -7.1700    22.9740 c3         1 YT5      -0.067700
     13 CG2         13.3490    -8.2680    23.6190 c3         1 YT5      -0.089100
     14 CG1         11.4180    -6.6870    23.9400 c3         1 YT5      -0.089100
     15 N           12.8120    -8.2360    20.7310 ns         1 YT5      -0.511900
     16 CAQ         12.7910    -9.5280    20.3310 c          1 YT5       0.602100
     17 OAS         11.9500   -10.3340    20.7200 o          1 YT5      -0.597100
     18 CAR         13.8850    -9.9330    19.3610 c3         1 YT5      -0.167400
     19 CAT         14.7500   -11.0560    19.9510 c3         1 YT5       0.172000
     20 CBB         15.7050   -11.6170    18.9130 ca         1 YT5      -0.106300
     21 CBC         15.3890   -12.8000    18.2480 ca         1 YT5      -0.094000
     22 CBD         16.2350   -13.3100    17.2680 ca         1 YT5      -0.110000
     23 CBE         17.4110   -12.6400    16.9450 ca         1 YT5      -0.103000
     24 CBF         17.7340   -11.4590    17.6070 ca         1 YT5      -0.110000
     25 CBG         16.8860   -10.9510    18.5850 ca         1 YT5      -0.094000
     26 NAU         15.4290   -10.5530    21.1330 ns         1 YT5      -0.513900
     27 CAV         15.7750   -11.3380    22.1830 c          1 YT5       0.606300
     28 OBH         15.5000   -12.5420    22.2210 o          1 YT5      -0.599100
     29 CAW         16.4900   -10.6250    23.2590 ce         1 YT5      -0.307200
     30 CAX         16.8880   -11.2430    24.3820 cf         1 YT5      -0.087000
     31 CAY         17.5930   -10.5950    25.4620 cf         1 YT5      -0.222000
     32 CAZ         17.9820   -11.2350    26.5730 c2         1 YT5      -0.168200
     33 CBA         18.7150   -10.6080    27.7100 c3         1 YT5      -0.066900
     34 H1           7.1810    -8.7080    21.1670 hc         1 YT5       0.055367
     35 H2           8.0860    -9.1030    19.6940 hc         1 YT5       0.055367
     36 H3           8.8390    -9.3160    21.2820 hc         1 YT5       0.055367
     37 H4           8.7520    -6.8620    21.6700 hc         1 YT5       0.087700
     38 H5           8.0630    -5.0840    18.2120 hn         1 YT5       0.347500
     39 H6          10.3850    -8.0470    19.4960 hc         1 YT5       0.114700
     40 H7          11.1550    -8.4690    21.9070 h1         1 YT5       0.099700
     41 H8          13.1520    -6.3270    22.7240 hc         1 YT5       0.060700
     42 H9          13.7910    -7.9020    24.5470 hc         1 YT5       0.040867
     43 H10         12.7360    -9.1410    23.8600 hc         1 YT5       0.040867
     44 H11         14.1570    -8.5940    22.9660 hc         1 YT5       0.040867
     45 H12         11.8710    -6.3320    24.8670 hc         1 YT5       0.040867
     46 H13         10.8290    -5.8710    23.5200 hc         1 YT5       0.040867
     47 H14         10.7380    -7.5060    24.1900 hc         1 YT5       0.040867
     48 H15         13.5520    -7.6380    20.3950 hn         1 YT5       0.319500
     49 H16         14.5140    -9.0860    19.0820 hc         1 YT5       0.072200
     50 H17         13.4020   -10.3030    18.4560 hc         1 YT5       0.072200
     51 H18         14.0930   -11.8600    20.2780 h1         1 YT5       0.103700
     52 H19         14.4760   -13.3260    18.5020 ha         1 YT5       0.112000
     53 H20         15.9790   -14.2330    16.7630 ha         1 YT5       0.114000
     54 H21         18.0730   -13.0380    16.1860 ha         1 YT5       0.114000
     55 H22         18.6490   -10.9330    17.3630 ha         1 YT5       0.114000
     56 H23         17.1480   -10.0350    19.0990 ha         1 YT5       0.112000
     57 H24         15.7190    -9.5880    21.1430 hn         1 YT5       0.304500
     58 H25         16.6850    -9.5680    23.1170 ha         1 YT5       0.172000
     59 H27         16.6730   -12.3020    24.4920 ha         1 YT5       0.195000
     60 H29         17.8110    -9.5360    25.3480 ha         1 YT5       0.173000
     61 H31         17.7530   -12.2940    26.6670 ha         1 YT5       0.173000
     62 H33         19.6730   -11.1110    27.8760 hc         1 YT5       0.046700
     63 H34         18.9030    -9.5480    27.5320 hc         1 YT5       0.046700
     64 H35         18.1480   -10.7120    28.6400 hc         1 YT5       0.046700
@<TRIPOS>BOND
     1     1     2 1   
     2     1    34 1   
     3     1    35 1   
     4     1    36 1   
     5     2     3 1   
     6     2     8 1   
     7     2    37 1   
     8     3     4 2   
     9     3     5 1   
    10     5     6 1   
    11     5    38 1   
    12     6     7 2   
    13     6     8 1   
    14     8     9 1   
    15     8    39 1   
    16     9    10 2   
    17     9    11 1   
    18    11    12 1   
    19    11    15 1   
    20    11    40 1   
    21    12    13 1   
    22    12    14 1   
    23    12    41 1   
    24    13    42 1   
    25    13    43 1   
    26    13    44 1   
    27    14    45 1   
    28    14    46 1   
    29    14    47 1   
    30    15    16 1   
    31    15    48 1   
    32    16    17 2   
    33    16    18 1   
    34    18    19 1   
    35    18    49 1   
    36    18    50 1   
    37    19    20 1   
    38    19    26 1   
    39    19    51 1   
    40    20    21 ar  
    41    20    25 ar  
    42    21    22 ar  
    43    21    52 1   
    44    22    23 ar  
    45    22    53 1   
    46    23    24 ar  
    47    23    54 1   
    48    24    25 ar  
    49    24    55 1   
    50    25    56 1   
    51    26    27 1   
    52    26    57 1   
    53    27    28 2   
    54    27    29 1   
    55    29    30 2   
    56    29    58 1   
    57    30    31 1   
    58    30    59 1   
    59    31    32 2   
    60    31    60 1   
    61    32    33 1   
    62    32    61 1   
    63    33    62 1   
    64    33    63 1   
    65    33    64 1   
@<TRIPOS>SUBSTRUCTURE
     1 YT5         1 TEMP              0 ****  ****    0 ROOT
