@<TRIPOS>MOLECULE
YT7
   50    53     1     0     0
SMALL
No Charge or Current Charge


@<TRIPOS>ATOM
      1 C5          -0.8980   -24.5610    31.5040 c3         1 YT7       0.113000
      2 C6          -1.3880   -26.7090    32.9450 c5         1 YT7       0.142300
      3 C7          -1.0870   -28.1560    32.5750 ca         1 YT7      -0.085300
      4 C8          -1.3350   -29.3080    33.3360 ca         1 YT7      -0.101000
      5 C9          -0.9760   -30.5650    32.8040 ca         1 YT7      -0.088000
      6 C10         -0.3780   -30.6570    31.5260 ca         1 YT7      -0.122000
      7 C3           1.6200   -24.2190    31.9680 c6         1 YT7      -0.071900
      8 C2           2.6650   -23.3900    32.7540 c6         1 YT7       0.175300
      9 C1           1.1240   -21.4800    32.9030 c6         1 YT7       0.175300
     10 O1           3.1390   -19.1150    31.8620 o          1 YT7      -0.496100
     11 N1          -0.8820   -26.0200    31.7170 n          1 YT7      -0.418800
     12 C4           0.1730   -23.7830    32.3200 c6         1 YT7      -0.082700
     13 C11         -0.1340   -29.4930    30.7690 ca         1 YT7      -0.038000
     14 C15          3.7210   -19.6060    32.8270 c          1 YT7       0.577700
     15 C13         -0.3610   -26.9050    30.7590 c          1 YT7       0.580600
     16 C12         -0.5010   -28.2580    31.3250 ca         1 YT7      -0.161600
     17 C16          4.6110   -18.7350    33.6970 ca         1 YT7      -0.193600
     18 N            2.4950   -21.9280    32.5240 n3         1 YT7      -0.710600
     19 C            0.0360   -22.2510    32.1180 c6         1 YT7      -0.071900
     20 O            0.1160   -26.6090    29.6720 o          1 YT7      -0.541000
     21 C17          4.5940   -17.3300    33.5310 ca         1 YT7      -0.040500
     22 C18          5.4110   -16.5060    34.3250 ca         1 YT7      -0.167000
     23 C19          6.2530   -17.0750    35.2890 ca         1 YT7       0.197000
     24 C20          6.2860   -18.4650    35.4640 ca         1 YT7      -0.167000
     25 C21          5.4720   -19.2950    34.6740 ca         1 YT7      -0.040500
     26 F            7.0370   -16.2820    36.0510 f          1 YT7      -0.173000
     27 H1          -0.7620   -24.3410    30.4370 h1         1 YT7       0.059700
     28 H2          -1.8910   -24.1870    31.7870 h1         1 YT7       0.059700
     29 H3          -0.8400   -26.3980    33.8440 h1         1 YT7       0.059700
     30 H4          -2.4620   -26.5420    33.0950 h1         1 YT7       0.059700
     31 H5          -1.7950   -29.2350    34.3200 ha         1 YT7       0.119000
     32 H6          -1.1600   -31.4680    33.3810 ha         1 YT7       0.115000
     33 H7          -0.1050   -31.6300    31.1240 ha         1 YT7       0.118000
     34 H8           1.7640   -25.2840    32.1940 hc         1 YT7       0.055200
     35 H9           1.7980   -24.1000    30.8900 hc         1 YT7       0.055200
     36 H10          2.5700   -23.6180    33.8260 h1         1 YT7       0.029700
     37 H11          3.6700   -23.7090    32.4430 h1         1 YT7       0.029700
     38 H12          0.9980   -20.4060    32.7060 h1         1 YT7       0.029700
     39 H13          0.9620   -21.6300    33.9810 h1         1 YT7       0.029700
     40 H14         -0.0140   -24.0100    33.3790 hc         1 YT7       0.038700
     41 H15          0.3260   -29.5500    29.7840 ha         1 YT7       0.136000
     42 H16          4.5540   -21.5680    32.9560 h1         1 YT7       0.050200
     43 H17          3.4520   -21.1790    34.2720 h1         1 YT7       0.050200
     44 H19          0.1160   -22.0040    31.0510 hc         1 YT7       0.055200
     45 H20         -0.9570   -21.9140    32.4440 hc         1 YT7       0.055200
     46 H21          3.9460   -16.8680    32.7880 ha         1 YT7       0.128000
     47 H22          5.3910   -15.4270    34.1940 ha         1 YT7       0.136500
     48 H23          6.9450   -18.8990    36.2120 ha         1 YT7       0.136500
     49 H24          5.5280   -20.3710    34.8290 ha         1 YT7       0.128000
     50 C14          3.5770   -21.1210    33.1820 c3         1 YT7       0.079800
@<TRIPOS>BOND
     1     1    11 1   
     2     1    12 1   
     3     1    27 1   
     4     1    28 1   
     5     2     3 1   
     6     2    11 1   
     7     2    29 1   
     8     2    30 1   
     9     3     4 ar  
    10     3    16 ar  
    11     4     5 ar  
    12     4    31 1   
    13     5     6 ar  
    14     5    32 1   
    15     6    13 ar  
    16     6    33 1   
    17     7     8 1   
    18     7    12 1   
    19     7    34 1   
    20     7    35 1   
    21     8    18 1   
    22     8    36 1   
    23     8    37 1   
    24     9    18 1   
    25     9    19 1   
    26     9    38 1   
    27     9    39 1   
    28    10    14 2   
    29    11    15 1   
    30    12    19 1   
    31    12    40 1   
    32    13    16 ar  
    33    13    41 1   
    34    14    17 1   
    35    14    50 1   
    36    15    16 1   
    37    15    20 2   
    38    17    21 ar  
    39    17    25 ar  
    40    18    50 1   
    41    19    44 1   
    42    19    45 1   
    43    21    22 ar  
    44    21    46 1   
    45    22    23 ar  
    46    22    47 1   
    47    23    24 ar  
    48    23    26 1   
    49    24    25 ar  
    50    24    48 1   
    51    25    49 1   
    52    42    50 1   
    53    43    50 1   
@<TRIPOS>SUBSTRUCTURE
     1 YT7         1 TEMP              0 ****  ****    0 ROOT
