@<TRIPOS>MOLECULE
YT7
   50    53     1     0     0
SMALL
bcc


@<TRIPOS>ATOM
      1 C5          -0.8730   -24.4850    31.5470 c3         1 YT7       0.113000
      2 C6          -1.2060   -26.6610    32.7800 c5         1 YT7       0.142300
      3 C7          -0.9110   -28.0770    32.3980 ca         1 YT7      -0.085300
      4 C8          -1.0940   -29.2540    33.1030 ca         1 YT7      -0.119000
      5 C9          -0.7160   -30.4450    32.4920 ca         1 YT7      -0.106000
      6 C10         -0.1690   -30.4580    31.2090 ca         1 YT7      -0.140000
      7 C3           1.5120   -24.1950    32.3670 c6         1 YT7      -0.071900
      8 C2           2.4240   -23.3810    33.2710 c6         1 YT7       0.175300
      9 C1           0.9220   -21.5180    33.2390 c6         1 YT7       0.175300
     10 O1           3.0930   -19.5810    31.9200 o          1 YT7      -0.496100
     11 N1          -0.7850   -25.9220    31.6090 n          1 YT7      -0.485800
     12 C4           0.0580   -23.7690    32.5250 c6         1 YT7      -0.082700
     13 C11          0.0120   -29.2750    30.5070 ca         1 YT7      -0.056000
     14 C15          3.5840   -19.8650    32.9900 c          1 YT7       0.577700
     15 C13         -0.2870   -26.7060    30.6200 c          1 YT7       0.723100
     16 C12         -0.3690   -28.0940    31.1240 ca         1 YT7      -0.161600
     17 C16          4.5610   -18.9440    33.6370 ca         1 YT7      -0.193600
     18 N            2.2840   -21.9610    33.0000 n3         1 YT7      -0.710600
     19 C           -0.0550   -22.2590    32.3410 c6         1 YT7      -0.071900
     20 O            0.1350   -26.3350    29.5370 o          1 YT7      -0.616500
     21 C17          4.8420   -17.7260    33.0150 ca         1 YT7      -0.058500
     22 C18          5.7620   -16.8440    33.5510 ca         1 YT7      -0.185000
     23 C19          6.4080   -17.1970    34.7220 ca         1 YT7       0.161900
     24 C20          6.1560   -18.3900    35.3720 ca         1 YT7      -0.185000
     25 C21          5.2280   -19.2600    34.8220 ca         1 YT7      -0.058500
     26 F            7.3080   -16.3540    35.2400 f          1 YT7      -0.137900
     27 H1          -0.6350   -24.1820    30.5260 h1         1 YT7       0.059700
     28 H2          -1.9070   -24.1810    31.7380 h1         1 YT7       0.059700
     29 H3          -0.6470   -26.3570    33.6700 h1         1 YT7       0.059700
     30 H4          -2.2680   -26.4980    32.9880 h1         1 YT7       0.059700
     31 H5          -1.5160   -29.2550    34.0990 ha         1 YT7       0.137000
     32 H6          -0.8470   -31.3800    33.0220 ha         1 YT7       0.133000
     33 H7           0.1170   -31.4010    30.7610 ha         1 YT7       0.136000
     34 H8           1.6350   -25.2560    32.6020 hc         1 YT7       0.055200
     35 H9           1.8240   -24.0600    31.3250 hc         1 YT7       0.055200
     36 H10          2.1990   -23.6210    34.3250 h1         1 YT7       0.029700
     37 H11          3.4630   -23.6720    33.0990 h1         1 YT7       0.029700
     38 H12          0.8480   -20.4470    33.0480 h1         1 YT7       0.029700
     39 H13          0.6370   -21.6700    34.2960 h1         1 YT7       0.029700
     40 H14         -0.2590   -24.0030    33.5500 hc         1 YT7       0.038700
     41 H15          0.4350   -29.2740    29.5100 ha         1 YT7       0.154000
     42 H16          4.1930   -21.7270    33.7780 h1         1 YT7       0.050200
     43 H17          2.9640   -20.9420    34.7410 h1         1 YT7       0.050200
     44 H19          0.1520   -21.9980    31.2980 hc         1 YT7       0.055200
     45 H20         -1.0720   -21.9220    32.5590 hc         1 YT7       0.055200
     46 H21          4.3350   -17.4620    32.0970 ha         1 YT7       0.146000
     47 H22          5.9780   -15.9010    33.0670 ha         1 YT7       0.154500
     48 H23          6.6760   -18.6400    36.2880 ha         1 YT7       0.154500
     49 H24          5.0400   -20.1930    35.3350 ha         1 YT7       0.146000
     50 C14          3.2550   -21.1650    33.7010 c3         1 YT7       0.079800
@<TRIPOS>BOND
     1     1    11 1   
     2     1    12 1   
     3     1    27 1   
     4     1    28 1   
     5     2     3 1   
     6     2    11 1   
     7     2    29 1   
     8     2    30 1   
     9     3     4 ar  
    10     3    16 ar  
    11     4     5 ar  
    12     4    31 1   
    13     5     6 ar  
    14     5    32 1   
    15     6    13 ar  
    16     6    33 1   
    17     7     8 1   
    18     7    12 1   
    19     7    34 1   
    20     7    35 1   
    21     8    18 1   
    22     8    36 1   
    23     8    37 1   
    24     9    18 1   
    25     9    19 1   
    26     9    38 1   
    27     9    39 1   
    28    10    14 2   
    29    11    15 1   
    30    12    19 1   
    31    12    40 1   
    32    13    16 ar  
    33    13    41 1   
    34    14    17 1   
    35    14    50 1   
    36    15    16 1   
    37    15    20 2   
    38    17    21 ar  
    39    17    25 ar  
    40    18    50 1   
    41    19    44 1   
    42    19    45 1   
    43    21    22 ar  
    44    21    46 1   
    45    22    23 ar  
    46    22    47 1   
    47    23    24 ar  
    48    23    26 1   
    49    24    25 ar  
    50    24    48 1   
    51    25    49 1   
    52    42    50 1   
    53    43    50 1   
@<TRIPOS>SUBSTRUCTURE
     1 YT7         1 TEMP              0 ****  ****    0 ROOT
