@<TRIPOS>MOLECULE
YTB
   21    21     1     0     0
SMALL
No Charge or Current Charge


@<TRIPOS>ATOM
      1 O6          -2.1120     1.1570    -0.9180 oh         1 YTB      -0.705000
      2 C5          -0.9050     0.4450    -0.5960 c5         1 YTB       0.162800
      3 C4           0.0940     1.3250     0.2110 c5         1 YTB       0.101300
      4 O4           0.6480     2.3980    -0.5580 oh         1 YTB      -0.719000
      5 C3           1.1930     0.2910     0.6270 c5         1 YTB       0.101300
      6 O3           2.2240     0.1980    -0.3880 oh         1 YTB      -0.719000
      7 C1          -1.0990    -0.6940     0.4530 c5         1 YTB       0.168500
      8 N1          -1.9890    -1.8020     0.0110 n8         1 YTB      -0.970200
      9 C2           0.4070    -1.0770     0.7620 c5         1 YTB       0.162800
     10 O2           0.9710    -2.0150    -0.1640 oh         1 YTB      -0.705000
     11 HO6         -1.8160     2.0470    -1.2250 ho         1 YTB       0.513500
     12 H5          -0.4360     0.0580    -1.5130 h1         1 YTB       0.062700
     13 H4          -0.4000     1.7290     1.1080 h1         1 YTB       0.050200
     14 HO4          1.4650     2.0010    -0.9530 ho         1 YTB       0.521000
     15 H3           1.6320     0.5790     1.5940 h1         1 YTB       0.050200
     16 HO3          3.0960     0.3370     0.0620 ho         1 YTB       0.521000
     17 H1          -1.5660    -0.2790     1.3580 h1         1 YTB       0.024700
     18 HN1         -2.2210    -2.3920     0.8180 hn         1 YTB       0.400500
     19 HN1A        -2.8910    -1.3950    -0.2630 hn         1 YTB       0.400500
     20 H2           0.4870    -1.4710     1.7850 h1         1 YTB       0.062700
     21 HO2          1.6300    -1.4440    -0.6390 ho         1 YTB       0.513500
@<TRIPOS>BOND
     1     1     2 1   
     2     1    11 1   
     3     2     3 1   
     4     2     7 1   
     5     2    12 1   
     6     3     4 1   
     7     3     5 1   
     8     3    13 1   
     9     4    14 1   
    10     5     6 1   
    11     5     9 1   
    12     5    15 1   
    13     6    16 1   
    14     7     8 1   
    15     7     9 1   
    16     7    17 1   
    17     8    18 1   
    18     8    19 1   
    19     9    10 1   
    20     9    20 1   
    21    10    21 1   
@<TRIPOS>SUBSTRUCTURE
     1 YTB         1 TEMP              0 ****  ****    0 ROOT
