@<TRIPOS>MOLECULE
YTB
   21    21     1     0     0
SMALL
bcc


@<TRIPOS>ATOM
      1 O6          -2.2480     1.2710    -0.2680 oh         1 YTB      -0.582800
      2 C5          -1.0450     0.5610    -0.4420 c5         1 YTB       0.139600
      3 C4           0.2310     1.3270    -0.0480 c5         1 YTB       0.078100
      4 O4           0.9000     1.8590    -1.1620 oh         1 YTB      -0.596800
      5 C3           1.0990     0.2840     0.7220 c5         1 YTB       0.078100
      6 O3           2.4340     0.2700     0.2740 oh         1 YTB      -0.596800
      7 C1          -1.0460    -0.6730     0.4550 c5         1 YTB       0.168500
      8 N1          -1.9340    -1.7100    -0.0260 n8         1 YTB      -0.859800
      9 C2           0.4240    -1.0700     0.4810 c5         1 YTB       0.139600
     10 O2           0.7820    -1.6150    -0.7640 oh         1 YTB      -0.582800
     11 HO6         -2.3260     1.9220    -0.9720 ho         1 YTB       0.414500
     12 H5          -0.9320     0.2280    -1.4820 h1         1 YTB       0.062700
     13 H4          -0.0460     2.1390     0.6380 h1         1 YTB       0.050200
     14 HO4          1.8170     1.5550    -1.1010 ho         1 YTB       0.422000
     15 H3           1.0490     0.5060     1.7910 h1         1 YTB       0.050200
     16 HO3          2.9890     0.7360     0.9050 ho         1 YTB       0.422000
     17 H1          -1.2880    -0.3370     1.4780 h1         1 YTB       0.024700
     18 HN1         -1.9530    -2.4750     0.6370 hn         1 YTB       0.345300
     19 HN1A        -2.8790    -1.3470    -0.0430 hn         1 YTB       0.345300
     20 H2           0.6410    -1.7750     1.2960 h1         1 YTB       0.062700
     21 HO2          1.7440    -1.6610    -0.7970 ho         1 YTB       0.414500
@<TRIPOS>BOND
     1     1     2 1   
     2     1    11 1   
     3     2     3 1   
     4     2     7 1   
     5     2    12 1   
     6     3     4 1   
     7     3     5 1   
     8     3    13 1   
     9     4    14 1   
    10     5     6 1   
    11     5     9 1   
    12     5    15 1   
    13     6    16 1   
    14     7     8 1   
    15     7     9 1   
    16     7    17 1   
    17     8    18 1   
    18     8    19 1   
    19     9    10 1   
    20     9    20 1   
    21    10    21 1   
@<TRIPOS>SUBSTRUCTURE
     1 YTB         1 TEMP              0 ****  ****    0 ROOT
