@<TRIPOS>MOLECULE
YTC
   53    56     1     0     0
SMALL
No Charge or Current Charge


@<TRIPOS>ATOM
      1 C01        -16.6310    16.1690   -20.3790 c3         1 YTC       0.143400
      2 C03        -18.5770    17.5140   -21.1240 ca         1 YTC       0.160100
      3 C04        -18.2410    18.5760   -20.2590 ca         1 YTC      -0.223000
      4 C05        -19.0060    19.7550   -20.2380 ca         1 YTC      -0.004300
      5 C06        -20.1230    19.8560   -21.0840 ca         1 YTC      -0.223000
      6 C07        -20.4910    18.8000   -21.9500 ca         1 YTC       0.160100
      7 C08        -19.7140    17.6030   -21.9610 ca         1 YTC       0.025100
      8 C10        -21.2720    16.2230   -23.3630 c3         1 YTC       0.151900
      9 C12        -22.3820    20.1290   -22.8580 c3         1 YTC       0.143400
     10 C13        -18.7040    20.8880   -19.2520 c3         1 YTC      -0.013100
     11 C14        -17.2110    21.2780   -19.0310 c5         1 YTC      -0.173700
     12 C15        -16.5040    22.1400   -20.1190 c5         1 YTC      -0.096700
     13 C16        -15.2790    22.5760   -19.2610 c5         1 YTC       0.155600
     14 C18        -16.9960    22.1650   -17.7920 c          1 YTC       0.650100
     15 C20        -16.0960    21.4340   -21.4430 c3         1 YTC      -0.016100
     16 C21        -17.1910    21.2240   -22.4900 ca         1 YTC      -0.084300
     17 C22        -17.2400    20.0010   -23.2020 ca         1 YTC      -0.090000
     18 C23        -18.2130    19.8440   -24.1960 ca         1 YTC       0.065100
     19 C24        -19.1000    20.8380   -24.4960 ca         1 YTC       0.051100
     20 C25        -19.0780    22.0670   -23.8300 ca         1 YTC      -0.098000
     21 C26        -18.1100    22.2570   -22.8220 ca         1 YTC      -0.111000
     22 C28        -19.6000    19.0820   -25.7300 c5         1 YTC       0.370600
     23 O02        -17.8270    16.3480   -21.1580 os         1 YTC      -0.327600
     24 O09        -19.9980    16.4850   -22.7480 os         1 YTC      -0.326100
     25 O11        -21.5880    18.9320   -22.7850 os         1 YTC      -0.327600
     26 O17        -15.8290    22.8550   -17.9540 os         1 YTC      -0.423100
     27 O19        -17.7720    22.3780   -16.8720 o          1 YTC      -0.487000
     28 O27        -19.9340    20.4980   -25.5120 os         1 YTC      -0.347100
     29 O29        -18.3740    18.7530   -24.9870 os         1 YTC      -0.337100
     30 H1         -16.1910    15.1840   -20.5810 h1         1 YTC       0.042867
     31 H2         -15.8840    16.9330   -20.6300 h1         1 YTC       0.042867
     32 H3         -16.8520    16.2280   -19.3060 h1         1 YTC       0.042867
     33 H4         -17.3970    18.4840   -19.5850 ha         1 YTC       0.123000
     34 H5         -20.7060    20.7700   -21.0480 ha         1 YTC       0.123000
     35 H6         -21.2850    15.2090   -23.7810 h1         1 YTC       0.030367
     36 H7         -22.0830    16.2970   -22.6280 h1         1 YTC       0.030367
     37 H8         -21.4680    16.9200   -24.1870 h1         1 YTC       0.030367
     38 H9         -23.1810    20.0090   -23.5990 h1         1 YTC       0.042867
     39 H10        -22.8480    20.3490   -21.8890 h1         1 YTC       0.042867
     40 H11        -21.7680    20.9870   -23.1590 h1         1 YTC       0.042867
     41 H12        -19.2600    21.7900   -19.5400 hc         1 YTC       0.061700
     42 H13        -19.1340    20.5860   -18.2890 hc         1 YTC       0.061700
     43 H14        -16.6080    20.3810   -18.8570 hc         1 YTC       0.089700
     44 H15        -17.0950    23.0290   -20.3640 hc         1 YTC       0.070700
     45 H16        -14.5420    21.7660   -19.1680 h1         1 YTC       0.063700
     46 H17        -14.7720    23.4670   -19.6550 h1         1 YTC       0.063700
     47 H18        -15.6260    20.4730   -21.1990 hc         1 YTC       0.053700
     48 H19        -15.3020    22.0250   -21.9170 hc         1 YTC       0.053700
     49 H20        -16.5390    19.1980   -22.9940 ha         1 YTC       0.132000
     50 H21        -19.7780    22.8550   -24.0930 ha         1 YTC       0.134000
     51 H22        -18.0680    23.2190   -22.3180 ha         1 YTC       0.117000
     52 H23        -19.4540    18.8910   -26.8000 h2         1 YTC       0.068200
     53 H24        -20.4210    18.4650   -25.3470 h2         1 YTC       0.068200
@<TRIPOS>BOND
     1     1    23 1   
     2     1    30 1   
     3     1    31 1   
     4     1    32 1   
     5     2     3 ar  
     6     2     7 ar  
     7     2    23 1   
     8     3     4 ar  
     9     3    33 1   
    10     4     5 ar  
    11     4    10 1   
    12     5     6 ar  
    13     5    34 1   
    14     6     7 ar  
    15     6    25 1   
    16     7    24 1   
    17     8    24 1   
    18     8    35 1   
    19     8    36 1   
    20     8    37 1   
    21     9    25 1   
    22     9    38 1   
    23     9    39 1   
    24     9    40 1   
    25    10    11 1   
    26    10    41 1   
    27    10    42 1   
    28    11    12 1   
    29    11    14 1   
    30    11    43 1   
    31    12    13 1   
    32    12    15 1   
    33    12    44 1   
    34    13    26 1   
    35    13    45 1   
    36    13    46 1   
    37    14    26 1   
    38    14    27 2   
    39    15    16 1   
    40    15    47 1   
    41    15    48 1   
    42    16    17 ar  
    43    16    21 ar  
    44    17    18 ar  
    45    17    49 1   
    46    18    19 ar  
    47    18    29 1   
    48    19    20 ar  
    49    19    28 1   
    50    20    21 ar  
    51    20    50 1   
    52    21    51 1   
    53    22    28 1   
    54    22    29 1   
    55    22    52 1   
    56    22    53 1   
@<TRIPOS>SUBSTRUCTURE
     1 YTC         1 TEMP              0 ****  ****    0 ROOT
