@<TRIPOS>MOLECULE
YTC
   53    56     1     0     0
SMALL
bcc


@<TRIPOS>ATOM
      1 C01        -17.3230    15.9150   -19.7500 c3         1 YTC       0.120200
      2 C03        -19.0380    17.2490   -20.6990 ca         1 YTC       0.160100
      3 C04        -18.4870    18.4280   -20.1990 ca         1 YTC      -0.241000
      4 C05        -19.0920    19.6490   -20.4730 ca         1 YTC      -0.004300
      5 C06        -20.2640    19.6900   -21.2210 ca         1 YTC      -0.241000
      6 C07        -20.8280    18.5150   -21.7080 ca         1 YTC       0.160100
      7 C08        -20.2150    17.2860   -21.4500 ca         1 YTC       0.025100
      8 C10        -20.3050    15.7380   -23.1950 c3         1 YTC       0.128700
      9 C12        -22.6950    19.6480   -22.6360 c3         1 YTC       0.120200
     10 C13        -18.5300    20.9490   -19.9570 c3         1 YTC      -0.013100
     11 C14        -17.0010    21.0370   -19.8510 c5         1 YTC      -0.173700
     12 C15        -16.3890    22.3690   -20.2930 c5         1 YTC      -0.096700
     13 C16        -15.1960    22.5160   -19.3480 c5         1 YTC       0.132400
     14 C18        -16.5000    20.8810   -18.4330 c          1 YTC       0.725600
     15 C20        -15.9700    22.4220   -21.7640 c3         1 YTC      -0.016100
     16 C21        -17.0870    22.0530   -22.7020 ca         1 YTC      -0.084300
     17 C22        -17.1890    20.7300   -23.1580 ca         1 YTC      -0.108000
     18 C23        -18.2680    20.4070   -23.9410 ca         1 YTC       0.065100
     19 C24        -19.2270    21.3410   -24.2880 ca         1 YTC       0.051100
     20 C25        -19.1480    22.6440   -23.8660 ca         1 YTC      -0.116000
     21 C26        -18.0520    22.9840   -23.0630 ca         1 YTC      -0.129000
     22 C28        -19.7220    19.4280   -25.3040 c5         1 YTC       0.324200
     23 O02        -18.5140    16.0250   -20.5020 os         1 YTC      -0.304400
     24 O09        -20.7680    16.1320   -21.9130 os         1 YTC      -0.302900
     25 O11        -21.9570    18.4590   -22.4390 os         1 YTC      -0.304400
     26 O17        -15.5120    21.7380   -18.1860 os         1 YTC      -0.399900
     27 O19        -16.8910    20.1170   -17.5930 o          1 YTC      -0.562500
     28 O27        -20.1910    20.7420   -25.0340 os         1 YTC      -0.323900
     29 O29        -18.6030    19.2000   -24.4590 os         1 YTC      -0.313900
     30 H1         -17.0780    14.8560   -19.7150 h1         1 YTC       0.042867
     31 H2         -16.4930    16.4530   -20.2150 h1         1 YTC       0.042867
     32 H3         -17.4480    16.2800   -18.7270 h1         1 YTC       0.042867
     33 H4         -17.5880    18.3960   -19.6000 ha         1 YTC       0.141000
     34 H5         -20.7180    20.6490   -21.4300 ha         1 YTC       0.141000
     35 H6         -20.8070    14.8050   -23.4470 h1         1 YTC       0.030367
     36 H7         -20.5460    16.4790   -23.9620 h1         1 YTC       0.030367
     37 H8         -19.2260    15.5660   -23.2040 h1         1 YTC       0.030367
     38 H9         -23.5860    19.3670   -23.1920 h1         1 YTC       0.042867
     39 H10        -23.0000    20.1000   -21.6880 h1         1 YTC       0.042867
     40 H11        -22.1390    20.3870   -23.2170 h1         1 YTC       0.042867
     41 H12        -18.8750    21.7500   -20.6110 hc         1 YTC       0.061700
     42 H13        -18.9760    21.1630   -18.9810 hc         1 YTC       0.061700
     43 H14        -16.5380    20.2260   -20.4290 hc         1 YTC       0.089700
     44 H15        -17.1080    23.1710   -20.0950 hc         1 YTC       0.070700
     45 H16        -14.2780    22.1200   -19.7890 h1         1 YTC       0.063700
     46 H17        -15.0160    23.5430   -19.0330 h1         1 YTC       0.063700
     47 H18        -15.1330    21.7350   -21.9100 hc         1 YTC       0.053700
     48 H19        -15.5980    23.4250   -21.9900 hc         1 YTC       0.053700
     49 H20        -16.4490    19.9860   -22.8890 ha         1 YTC       0.150000
     50 H21        -19.8970    23.3780   -24.1340 ha         1 YTC       0.152000
     51 H22        -17.9630    24.0040   -22.7090 ha         1 YTC       0.135000
     52 H23        -19.4160    19.3510   -26.3530 h2         1 YTC       0.068200
     53 H24        -20.5060    18.7030   -25.0830 h2         1 YTC       0.068200
@<TRIPOS>BOND
     1     1    23 1   
     2     1    30 1   
     3     1    31 1   
     4     1    32 1   
     5     2     3 ar  
     6     2     7 ar  
     7     2    23 1   
     8     3     4 ar  
     9     3    33 1   
    10     4     5 ar  
    11     4    10 1   
    12     5     6 ar  
    13     5    34 1   
    14     6     7 ar  
    15     6    25 1   
    16     7    24 1   
    17     8    24 1   
    18     8    35 1   
    19     8    36 1   
    20     8    37 1   
    21     9    25 1   
    22     9    38 1   
    23     9    39 1   
    24     9    40 1   
    25    10    11 1   
    26    10    41 1   
    27    10    42 1   
    28    11    12 1   
    29    11    14 1   
    30    11    43 1   
    31    12    13 1   
    32    12    15 1   
    33    12    44 1   
    34    13    26 1   
    35    13    45 1   
    36    13    46 1   
    37    14    26 1   
    38    14    27 2   
    39    15    16 1   
    40    15    47 1   
    41    15    48 1   
    42    16    17 ar  
    43    16    21 ar  
    44    17    18 ar  
    45    17    49 1   
    46    18    19 ar  
    47    18    29 1   
    48    19    20 ar  
    49    19    28 1   
    50    20    21 ar  
    51    20    50 1   
    52    21    51 1   
    53    22    28 1   
    54    22    29 1   
    55    22    52 1   
    56    22    53 1   
@<TRIPOS>SUBSTRUCTURE
     1 YTC         1 TEMP              0 ****  ****    0 ROOT
