@<TRIPOS>MOLECULE
YTD
   51    53     1     0     0
SMALL
No Charge or Current Charge


@<TRIPOS>ATOM
      1 C1          -3.0660   -18.8210   -31.2350 c          1 YTD       0.570000
      2 C2          -2.5440   -19.2850   -32.5990 c6         1 YTD      -0.159400
      3 C3          -2.2250   -20.7920   -32.6080 c6         1 YTD      -0.025100
      4 C4          -1.3370   -21.1480   -31.4190 ca         1 YTD      -0.124300
      5 C5          -1.5360   -20.5000   -30.1790 ca         1 YTD      -0.010000
      6 C6          -0.6170   -20.7500   -29.1350 ca         1 YTD      -0.153000
      7 C7           0.3870   -21.7220   -29.2790 ca         1 YTD      -0.079000
      8 N           -2.4930   -19.4200   -30.0860 n          1 YTD      -0.221400
      9 C           -2.9910   -19.0110   -28.7500 c3         1 YTD       0.079300
     10 O           -0.0710   -26.9590   -31.3900 oh         1 YTD      -0.661000
     11 C10          1.9360   -26.0200   -30.4540 c3         1 YTD       0.154200
     12 C11          2.8670   -25.9690   -31.7000 c3         1 YTD      -0.102100
     13 C12          0.9890   -27.2810   -30.4900 c3         1 YTD       0.230600
     14 C13          1.6580   -28.6200   -30.8400 ca         1 YTD      -0.083300
     15 C14          2.1440   -29.4440   -29.8040 ca         1 YTD      -0.094000
     16 C15          2.7640   -30.6720   -30.0980 ca         1 YTD      -0.116500
     17 C16          2.9010   -31.0890   -31.4310 ca         1 YTD      -0.107000
     18 C17          2.4170   -30.2790   -32.4710 ca         1 YTD      -0.116500
     19 C18          1.7970   -29.0520   -32.1780 ca         1 YTD      -0.094000
     20 C19          2.7820   -26.0140   -29.1570 c3         1 YTD      -0.102100
     21 C20         -0.3340   -22.1270   -31.5600 ca         1 YTD      -0.056000
     22 C8           0.5250   -22.4270   -30.4880 ca         1 YTD      -0.119300
     23 C9           1.6120   -23.4770   -30.6500 c3         1 YTD       0.221100
     24 N1           1.0300   -24.8230   -30.4540 n7         1 YTD      -0.898400
     25 O1          -3.9580   -17.9830   -31.1700 o          1 YTD      -0.542000
     26 H1          -1.5840   -18.7720   -32.7430 hc         1 YTD       0.077200
     27 H2          -3.2240   -18.9760   -33.4030 hc         1 YTD       0.077200
     28 H3          -3.1570   -21.3720   -32.5560 hc         1 YTD       0.060700
     29 H4          -1.7380   -21.0630   -33.5550 hc         1 YTD       0.060700
     30 H5          -0.6740   -20.2000   -28.1990 ha         1 YTD       0.121000
     31 H6           1.0660   -21.9200   -28.4520 ha         1 YTD       0.112000
     32 H7          -2.9510   -19.8600   -28.0560 h1         1 YTD       0.049033
     33 H8          -2.3700   -18.1960   -28.3600 h1         1 YTD       0.049033
     34 H9          -4.0340   -18.6740   -28.8050 h1         1 YTD       0.049033
     35 H11          3.5430   -25.1060   -31.6640 hc         1 YTD       0.043033
     36 H12          3.5030   -26.8590   -31.7520 hc         1 YTD       0.043033
     37 H13          2.2850   -25.9100   -32.6280 hc         1 YTD       0.043033
     38 H14          0.5540   -27.3870   -29.4870 h1         1 YTD       0.029700
     39 H15          2.0440   -29.1330   -28.7660 ha         1 YTD       0.116500
     40 H16          3.1370   -31.2990   -29.2910 ha         1 YTD       0.111500
     41 H17          3.3810   -32.0390   -31.6580 ha         1 YTD       0.111000
     42 H18          2.5210   -30.6020   -33.5050 ha         1 YTD       0.111500
     43 H19          1.4290   -28.4350   -32.9950 ha         1 YTD       0.116500
     44 H20          3.4440   -25.1420   -29.1130 hc         1 YTD       0.043033
     45 H21          2.1400   -26.0000   -28.2670 hc         1 YTD       0.043033
     46 H22          3.4140   -26.9080   -29.1030 hc         1 YTD       0.043033
     47 H23         -0.2120   -22.6480   -32.5070 ha         1 YTD       0.124000
     48 H24          2.0490   -23.3770   -31.6520 h1         1 YTD       0.041200
     49 H25          2.4080   -23.2810   -29.9200 h1         1 YTD       0.041200
     50 H26          0.5450   -24.7980   -29.5480 hn         1 YTD       0.419000
     51 H10          0.0040   -25.9670   -31.3710 ho         1 YTD       0.472000
@<TRIPOS>BOND
     1     1     2 1   
     2     1     8 1   
     3     1    25 2   
     4     2     3 1   
     5     2    26 1   
     6     2    27 1   
     7     3     4 1   
     8     3    28 1   
     9     3    29 1   
    10     4     5 ar  
    11     4    21 ar  
    12     5     6 ar  
    13     5     8 1   
    14     6     7 ar  
    15     6    30 1   
    16     7    22 ar  
    17     7    31 1   
    18     8     9 1   
    19     9    32 1   
    20     9    33 1   
    21     9    34 1   
    22    10    13 1   
    23    10    51 1   
    24    11    12 1   
    25    11    13 1   
    26    11    20 1   
    27    11    24 1   
    28    12    35 1   
    29    12    36 1   
    30    12    37 1   
    31    13    14 1   
    32    13    38 1   
    33    14    15 ar  
    34    14    19 ar  
    35    15    16 ar  
    36    15    39 1   
    37    16    17 ar  
    38    16    40 1   
    39    17    18 ar  
    40    17    41 1   
    41    18    19 ar  
    42    18    42 1   
    43    19    43 1   
    44    20    44 1   
    45    20    45 1   
    46    20    46 1   
    47    21    22 ar  
    48    21    47 1   
    49    22    23 1   
    50    23    24 1   
    51    23    48 1   
    52    23    49 1   
    53    24    50 1   
@<TRIPOS>SUBSTRUCTURE
     1 YTD         1 TEMP              0 ****  ****    0 ROOT
