@<TRIPOS>MOLECULE
YTD
   51    53     1     0     0
SMALL
bcc


@<TRIPOS>ATOM
      1 C1          -3.1080   -19.1030   -31.2980 c          1 YTD       0.712500
      2 C2          -2.7880   -19.8770   -32.5510 c6         1 YTD      -0.159400
      3 C3          -2.4700   -21.3310   -32.2510 c6         1 YTD      -0.025100
      4 C4          -1.3790   -21.3900   -31.2290 ca         1 YTD      -0.124300
      5 C5          -1.3770   -20.4200   -30.2180 ca         1 YTD       0.082600
      6 C6          -0.3790   -20.4520   -29.2510 ca         1 YTD      -0.171000
      7 C7           0.5950   -21.4430   -29.2840 ca         1 YTD      -0.097000
      8 N           -2.3980   -19.4530   -30.1810 n          1 YTD      -0.381000
      9 C           -2.6160   -18.7180   -28.9490 c3         1 YTD       0.079300
     10 O            0.2150   -26.7310   -31.9890 oh         1 YTD      -0.598800
     11 C10          1.9150   -25.9730   -30.4380 c3         1 YTD       0.154200
     12 C11          3.0090   -25.7870   -31.4840 c3         1 YTD      -0.102100
     13 C12          0.9340   -27.1170   -30.8490 c3         1 YTD       0.207400
     14 C13          1.5990   -28.4470   -31.0930 ca         1 YTD      -0.083300
     15 C14          1.8080   -29.3250   -30.0330 ca         1 YTD      -0.112000
     16 C15          2.4430   -30.5440   -30.2290 ca         1 YTD      -0.134500
     17 C16          2.8650   -30.9120   -31.4990 ca         1 YTD      -0.125000
     18 C17          2.6430   -30.0530   -32.5670 ca         1 YTD      -0.134500
     19 C18          2.0130   -28.8320   -32.3670 ca         1 YTD      -0.112000
     20 C19          2.5460   -26.2620   -29.0770 c3         1 YTD      -0.102100
     21 C20         -0.3910   -22.3580   -31.2490 ca         1 YTD      -0.074000
     22 C8           0.6090   -22.4070   -30.2790 ca         1 YTD      -0.119300
     23 C9           1.6640   -23.4790   -30.3220 c3         1 YTD       0.221100
     24 N1           1.0410   -24.7910   -30.3980 n7         1 YTD      -0.843200
     25 O1          -3.9370   -18.2100   -31.2820 o          1 YTD      -0.617500
     26 H1          -1.9250   -19.4000   -33.0300 hc         1 YTD       0.077200
     27 H2          -3.6300   -19.7780   -33.2340 hc         1 YTD       0.077200
     28 H3          -3.3660   -21.8350   -31.8720 hc         1 YTD       0.060700
     29 H4          -2.1780   -21.8550   -33.1610 hc         1 YTD       0.060700
     30 H5          -0.3390   -19.7140   -28.4620 ha         1 YTD       0.139000
     31 H6           1.3570   -21.4520   -28.5130 ha         1 YTD       0.130000
     32 H7          -2.6030   -19.4020   -28.1030 h1         1 YTD       0.049033
     33 H8          -1.8520   -17.9540   -28.7920 h1         1 YTD       0.049033
     34 H9          -3.5840   -18.2310   -28.9830 h1         1 YTD       0.049033
     35 H11          3.7230   -25.0210   -31.1820 hc         1 YTD       0.043033
     36 H12          3.5710   -26.7120   -31.6070 hc         1 YTD       0.043033
     37 H13          2.6040   -25.5060   -32.4570 hc         1 YTD       0.043033
     38 H14          0.2500   -27.2470   -29.9900 h1         1 YTD       0.029700
     39 H15          1.4660   -29.0550   -29.0410 ha         1 YTD       0.134500
     40 H16          2.5990   -31.2090   -29.3890 ha         1 YTD       0.129500
     41 H17          3.3560   -31.8640   -31.6560 ha         1 YTD       0.129000
     42 H18          2.9590   -30.3360   -33.5640 ha         1 YTD       0.129500
     43 H19          1.8450   -28.1760   -33.2110 ha         1 YTD       0.134500
     44 H20          3.1420   -25.4100   -28.7460 hc         1 YTD       0.043033
     45 H21          1.7830   -26.4510   -28.3190 hc         1 YTD       0.043033
     46 H22          3.2070   -27.1280   -29.1120 hc         1 YTD       0.043033
     47 H23         -0.4070   -23.0980   -32.0410 ha         1 YTD       0.142000
     48 H24          2.2840   -23.3360   -31.2090 h1         1 YTD       0.041200
     49 H25          2.3300   -23.3620   -29.4560 h1         1 YTD       0.041200
     50 H26          0.4070   -24.8910   -29.6100 hn         1 YTD       0.363800
     51 H10          0.1070   -25.7700   -31.8750 ho         1 YTD       0.433000
@<TRIPOS>BOND
     1     1     2 1   
     2     1     8 1   
     3     1    25 2   
     4     2     3 1   
     5     2    26 1   
     6     2    27 1   
     7     3     4 1   
     8     3    28 1   
     9     3    29 1   
    10     4     5 ar  
    11     4    21 ar  
    12     5     6 ar  
    13     5     8 1   
    14     6     7 ar  
    15     6    30 1   
    16     7    22 ar  
    17     7    31 1   
    18     8     9 1   
    19     9    32 1   
    20     9    33 1   
    21     9    34 1   
    22    10    13 1   
    23    10    51 1   
    24    11    12 1   
    25    11    13 1   
    26    11    20 1   
    27    11    24 1   
    28    12    35 1   
    29    12    36 1   
    30    12    37 1   
    31    13    14 1   
    32    13    38 1   
    33    14    15 ar  
    34    14    19 ar  
    35    15    16 ar  
    36    15    39 1   
    37    16    17 ar  
    38    16    40 1   
    39    17    18 ar  
    40    17    41 1   
    41    18    19 ar  
    42    18    42 1   
    43    19    43 1   
    44    20    44 1   
    45    20    45 1   
    46    20    46 1   
    47    21    22 ar  
    48    21    47 1   
    49    22    23 1   
    50    23    24 1   
    51    23    48 1   
    52    23    49 1   
    53    24    50 1   
@<TRIPOS>SUBSTRUCTURE
     1 YTD         1 TEMP              0 ****  ****    0 ROOT
