@<TRIPOS>MOLECULE
YTF
   32    31     1     0     0
SMALL
abcg2


@<TRIPOS>ATOM
      1 N          302.8900    -0.1530    10.2400 n8         1 YTF      -1.006200
      2 CA         302.9990     1.2370    10.6610 c3         1 YTF       0.161500
      3 CB         303.6520     2.0600     9.5510 c3         1 YTF      -0.056400
      4 CG         305.0740     1.6120     9.2420 c3         1 YTF      -0.155400
      5 CD         305.6930     2.3530     8.0780 c          1 YTF       0.603100
      6 OE1        305.0560     2.6400     7.0730 o          1 YTF      -0.609100
      7 NE2        306.9970     2.6490     8.2160 nt         1 YTF      -0.614000
      8 C          301.6730     1.8850    11.0780 c3         1 YTF      -0.109400
      9 CX6        301.0030     1.1600    12.2350 c3         1 YTF      -0.140400
     10 CX7        299.7650     1.8500    12.7400 c          1 YTF       0.594100
     11 OX8        299.2160     2.7770    12.1970 o          1 YTF      -0.486000
     12 OX9        299.3300     1.3040    13.8690 os         1 YTF      -0.456100
     13 CJ1        298.1490     1.8490    14.4760 c3         1 YTF       0.168600
     14 CJ2        297.9010     1.0910    15.7570 c3         1 YTF      -0.098100
     15 H2         302.6170    -0.7420    11.0170 hn         1 YTF       0.397500
     16 H          302.1580    -0.2440     9.5440 hn         1 YTF       0.397500
     17 HA         303.6650     1.2530    11.5320 h1         1 YTF       0.051700
     18 HB2        303.6580     3.1120     9.8500 hc         1 YTF       0.055200
     19 HB3        303.0350     1.9990     8.6500 hc         1 YTF       0.055200
     20 HG2        305.0700     0.5490     8.9860 hc         1 YTF       0.063700
     21 HG3        305.6970     1.7070    10.1350 hc         1 YTF       0.063700
     22 HE22       307.5030     3.0900     7.4650 hn         1 YTF       0.311000
     23 HE21       307.5140     2.4030     9.0410 hn         1 YTF       0.311000
     24 H11        301.8640     2.9230    11.3610 hc         1 YTF       0.062200
     25 H1         301.0020     1.9160    10.2140 hc         1 YTF       0.062200
     26 H31        300.7150     0.1440    11.9440 hc         1 YTF       0.068200
     27 H3         301.7020     1.0390    13.0690 hc         1 YTF       0.068200
     28 H4         298.2940     2.9130    14.6760 h1         1 YTF       0.048700
     29 H5         297.3030     1.7490    13.7930 h1         1 YTF       0.048700
     30 H7         297.0070     1.4860    16.2400 hc         1 YTF       0.046700
     31 H8         297.7380     0.0300    15.5720 hc         1 YTF       0.046700
     32 H6         298.7320     1.2000    16.4540 hc         1 YTF       0.046700
@<TRIPOS>BOND
     1     1     2 1   
     2     1    15 1   
     3     1    16 1   
     4     2     3 1   
     5     2     8 1   
     6     2    17 1   
     7     3     4 1   
     8     3    18 1   
     9     3    19 1   
    10     4     5 1   
    11     4    20 1   
    12     4    21 1   
    13     5     6 2   
    14     5     7 1   
    15     7    22 1   
    16     7    23 1   
    17     8     9 1   
    18     8    24 1   
    19     8    25 1   
    20     9    10 1   
    21     9    26 1   
    22     9    27 1   
    23    10    11 2   
    24    10    12 1   
    25    12    13 1   
    26    13    14 1   
    27    13    28 1   
    28    13    29 1   
    29    14    30 1   
    30    14    31 1   
    31    14    32 1   
@<TRIPOS>SUBSTRUCTURE
     1 YTF         1 TEMP              0 ****  ****    0 ROOT
