@<TRIPOS>MOLECULE
YTF
   32    31     1     0     0
SMALL
No Charge or Current Charge


@<TRIPOS>ATOM
      1 N          302.4640    -0.2240     9.3760 n8         1 YTF      -1.006200
      2 CA         302.7380     0.8350    10.3650 c3         1 YTF       0.161500
      3 CB         303.6150     1.9540     9.7460 c3         1 YTF      -0.056400
      4 CG         305.0150     1.4820     9.2690 c3         1 YTF      -0.155400
      5 CD         305.8510     2.6550     8.7560 c          1 YTF       0.603100
      6 OE1        305.7580     3.1010     7.6250 o          1 YTF      -0.609100
      7 NE2        306.7240     3.1940     9.6330 nt         1 YTF      -0.614000
      8 C          301.4100     1.3890    10.9380 c3         1 YTF      -0.109400
      9 CX6        300.5410     0.3430    11.6890 c3         1 YTF      -0.140400
     10 CX7        299.3260     1.0000    12.3510 c          1 YTF       0.594100
     11 OX8        298.2720     1.2190    11.7680 o          1 YTF      -0.486000
     12 OX9        299.5830     1.3550    13.6490 os         1 YTF      -0.456100
     13 CJ1        298.5380     2.0050    14.3910 c3         1 YTF       0.168600
     14 CJ2        299.0820     2.2910    15.8000 c3         1 YTF      -0.098100
     15 H2         301.8780    -0.9430     9.8130 hn         1 YTF       0.397500
     16 H          301.8650     0.1590     8.6370 hn         1 YTF       0.397500
     17 HA         303.3030     0.3840    11.1940 h1         1 YTF       0.051700
     18 HB2        303.7520     2.7440    10.4940 hc         1 YTF       0.055200
     19 HB3        303.0810     2.4130     8.9040 hc         1 YTF       0.055200
     20 HG2        304.8930     0.7520     8.4600 hc         1 YTF       0.063700
     21 HG3        305.5180     1.0190    10.1270 hc         1 YTF       0.063700
     22 HE22       307.3000     3.9710     9.3430 hn         1 YTF       0.311000
     23 HE21       306.7970     2.8220    10.5690 hn         1 YTF       0.311000
     24 H11        301.6480     2.2020    11.6370 hc         1 YTF       0.062200
     25 H1         300.8190     1.8410    10.1310 hc         1 YTF       0.062200
     26 H31        300.1890    -0.4200    10.9860 hc         1 YTF       0.068200
     27 H3         301.1670    -0.1080    12.4680 hc         1 YTF       0.068200
     28 H4         298.2460     2.9500    13.9120 h1         1 YTF       0.048700
     29 H5         297.6510     1.3620    14.4650 h1         1 YTF       0.048700
     30 H7         298.3180     2.7900    16.4070 hc         1 YTF       0.046700
     31 H8         299.3660     1.3590    16.3010 hc         1 YTF       0.046700
     32 H6         299.9610     2.9450    15.7490 hc         1 YTF       0.046700
@<TRIPOS>BOND
     1     1     2 1   
     2     1    15 1   
     3     1    16 1   
     4     2     3 1   
     5     2     8 1   
     6     2    17 1   
     7     3     4 1   
     8     3    18 1   
     9     3    19 1   
    10     4     5 1   
    11     4    20 1   
    12     4    21 1   
    13     5     6 2   
    14     5     7 1   
    15     7    22 1   
    16     7    23 1   
    17     8     9 1   
    18     8    24 1   
    19     8    25 1   
    20     9    10 1   
    21     9    26 1   
    22     9    27 1   
    23    10    11 2   
    24    10    12 1   
    25    12    13 1   
    26    13    14 1   
    27    13    28 1   
    28    13    29 1   
    29    14    30 1   
    30    14    31 1   
    31    14    32 1   
@<TRIPOS>SUBSTRUCTURE
     1 YTF         1 TEMP              0 ****  ****    0 ROOT
