@<TRIPOS>MOLECULE
YTG
   57    60     1     0     0
SMALL
No Charge or Current Charge


@<TRIPOS>ATOM
      1 C1          -9.8110   -27.6030    -5.9020 ca         1 YTG      -0.094000
      2 C2         -10.0320   -28.9750    -6.1530 ca         1 YTG      -0.117000
      3 C3         -10.7610   -29.7660    -5.2320 ca         1 YTG       0.111100
      4 O3         -10.9620   -31.0890    -5.4940 oh         1 YTG      -0.541100
      5 C4         -11.2790   -29.1930    -4.0520 ca         1 YTG      -0.156000
      6 C5         -11.0380   -27.8300    -3.8320 ca         1 YTG      -0.044800
      7 C6         -10.3350   -27.0650    -4.7190 ca         1 YTG      -0.082200
      8 N1         -10.2490   -25.7710    -4.2380 na         1 YTG      -0.215700
      9 C8         -10.9130   -25.6740    -2.9960 cc         1 YTG      -0.143100
     10 C7         -11.4030   -26.9520    -2.7440 cd         1 YTG      -0.160400
     11 C9         -12.1830   -27.3550    -1.5120 c3         1 YTG      -0.074200
     12 C10        -11.3750   -28.2400    -0.5530 c          1 YTG       0.612100
     13 O1         -11.3350   -29.4600    -0.6500 o          1 YTG      -0.611100
     14 N2         -10.6810   -27.5550     0.4220 ns         1 YTG      -0.485900
     15 C11         -9.7370   -28.1680     1.3880 c3         1 YTG       0.043700
     16 C20         -8.2790   -28.0790     0.8600 c3         1 YTG      -0.039100
     17 C21         -8.0650   -28.8350    -0.4460 ca         1 YTG      -0.079300
     18 C22         -7.9000   -30.2340    -0.4300 ca         1 YTG      -0.103000
     19 C23         -7.7090   -30.9390    -1.6310 ca         1 YTG      -0.107500
     20 C24         -7.6790   -30.2490    -2.8550 ca         1 YTG      -0.107000
     21 C25         -7.8380   -28.8540    -2.8760 ca         1 YTG      -0.107500
     22 C26         -8.0330   -28.1480    -1.6760 ca         1 YTG      -0.103000
     23 C12         -9.8890   -27.5150     2.8040 c          1 YTG       0.593100
     24 O2         -10.5620   -26.4960     2.9480 o          1 YTG      -0.589100
     25 N3          -9.1670   -28.0560     3.9070 n          1 YTG      -0.243400
     26 C14         -8.9950   -27.1980     5.1020 c3         1 YTG       0.096300
     27 C13         -8.5690   -29.3660     3.9470 ca         1 YTG      -0.054000
     28 C15         -9.2740   -30.5030     3.4980 ca         1 YTG      -0.105500
     29 C16         -8.6270   -31.7460     3.3800 ca         1 YTG      -0.099000
     30 C17         -7.2590   -31.8550     3.6690 ca         1 YTG       0.116000
     31 Cl          -6.4470   -33.4070     3.5090 cl         1 YTG      -0.196000
     32 C18         -6.5340   -30.7220     4.0670 ca         1 YTG      -0.099000
     33 C19         -7.1830   -29.4800     4.1870 ca         1 YTG      -0.105500
     34 H1          -9.2500   -26.9880    -6.6010 ha         1 YTG       0.114000
     35 H2          -9.6380   -29.4280    -7.0590 ha         1 YTG       0.126000
     36 H3         -11.4700   -31.4790    -4.7510 ho         1 YTG       0.463000
     37 H4         -11.8400   -29.7830    -3.3320 ha         1 YTG       0.126000
     38 H5          -9.7780   -25.0060    -4.7110 hn         1 YTG       0.350000
     39 H6         -10.9770   -24.7530    -2.4250 h4         1 YTG       0.208000
     40 H7         -12.4690   -26.4370    -0.9860 hc         1 YTG       0.066200
     41 H8         -13.0840   -27.8980    -1.8190 hc         1 YTG       0.066200
     42 H9         -10.7990   -26.5490     0.4420 hn         1 YTG       0.320500
     43 H10        -10.0010   -29.2240     1.4840 h1         1 YTG       0.092700
     44 H11         -7.5850   -28.4720     1.6100 hc         1 YTG       0.061200
     45 H12         -8.0100   -27.0230     0.7370 hc         1 YTG       0.061200
     46 H13         -7.9230   -30.7750     0.5130 ha         1 YTG       0.110000
     47 H14         -7.5860   -32.0200    -1.6130 ha         1 YTG       0.111500
     48 H15         -7.5350   -30.7940    -3.7850 ha         1 YTG       0.112000
     49 H16         -7.8170   -28.3190    -3.8220 ha         1 YTG       0.111500
     50 H17         -8.1670   -27.0700    -1.7050 ha         1 YTG       0.110000
     51 H18         -8.4810   -27.7490     5.8990 h1         1 YTG       0.045700
     52 H19         -8.4020   -26.3130     4.8390 h1         1 YTG       0.045700
     53 H20         -9.9750   -26.8790     5.4770 h1         1 YTG       0.045700
     54 H21        -10.3360   -30.4370     3.2740 ha         1 YTG       0.137000
     55 H22         -9.1840   -32.6220     3.0580 ha         1 YTG       0.135500
     56 H23         -5.4690   -30.8020     4.2670 ha         1 YTG       0.135500
     57 H24         -6.6000   -28.6020     4.4580 ha         1 YTG       0.137000
@<TRIPOS>BOND
     1     1     2 ar  
     2     1     7 ar  
     3     1    34 1   
     4     2     3 ar  
     5     2    35 1   
     6     3     4 1   
     7     3     5 ar  
     8     4    36 1   
     9     5     6 ar  
    10     5    37 1   
    11     6     7 ar  
    12     6    10 1   
    13     7     8 1   
    14     8     9 1   
    15     8    38 1   
    16     9    10 2   
    17     9    39 1   
    18    10    11 1   
    19    11    12 1   
    20    11    40 1   
    21    11    41 1   
    22    12    13 2   
    23    12    14 1   
    24    14    15 1   
    25    14    42 1   
    26    15    16 1   
    27    15    23 1   
    28    15    43 1   
    29    16    17 1   
    30    16    44 1   
    31    16    45 1   
    32    17    18 ar  
    33    17    22 ar  
    34    18    19 ar  
    35    18    46 1   
    36    19    20 ar  
    37    19    47 1   
    38    20    21 ar  
    39    20    48 1   
    40    21    22 ar  
    41    21    49 1   
    42    22    50 1   
    43    23    24 2   
    44    23    25 1   
    45    25    26 1   
    46    25    27 1   
    47    26    51 1   
    48    26    52 1   
    49    26    53 1   
    50    27    28 ar  
    51    27    33 ar  
    52    28    29 ar  
    53    28    54 1   
    54    29    30 ar  
    55    29    55 1   
    56    30    31 1   
    57    30    32 ar  
    58    32    33 ar  
    59    32    56 1   
    60    33    57 1   
@<TRIPOS>SUBSTRUCTURE
     1 YTG         1 TEMP              0 ****  ****    0 ROOT
