@<TRIPOS>MOLECULE
YTG
   57    60     1     0     0
SMALL
bcc


@<TRIPOS>ATOM
      1 C1         -10.6180   -29.5320    -5.6190 ca         1 YTG      -0.112000
      2 C2         -11.5570   -30.5330    -5.4820 ca         1 YTG      -0.135000
      3 C3         -12.4510   -30.5510    -4.3940 ca         1 YTG       0.111100
      4 O3         -13.3390   -31.5750    -4.3590 oh         1 YTG      -0.502100
      5 C4         -12.4060   -29.5680    -3.4230 ca         1 YTG      -0.174000
      6 C5         -11.4630   -28.5380    -3.5510 ca         1 YTG      -0.044800
      7 C6         -10.5780   -28.5350    -4.6480 ca         1 YTG      -0.082200
      8 N1          -9.7770   -27.4310    -4.5280 na         1 YTG      -0.165400
      9 C8         -10.1290   -26.7430    -3.4070 cc         1 YTG      -0.093100
     10 C7         -11.1610   -27.3790    -2.7690 cd         1 YTG      -0.160400
     11 C9         -11.7980   -26.9770    -1.4780 c3         1 YTG      -0.074200
     12 C10        -11.1560   -27.7420    -0.3370 c          1 YTG       0.679100
     13 O1         -11.5790   -28.8180     0.0610 o          1 YTG      -0.611100
     14 N2         -10.0380   -27.1790     0.1550 ns         1 YTG      -0.552900
     15 C11         -9.2600   -27.8020     1.1880 c3         1 YTG       0.043700
     16 C20         -7.8460   -27.2010     1.2080 c3         1 YTG      -0.039100
     17 C21         -7.1230   -27.4850    -0.0790 ca         1 YTG      -0.079300
     18 C22         -6.6210   -28.7620    -0.3280 ca         1 YTG      -0.121000
     19 C23         -6.0020   -29.0580    -1.5330 ca         1 YTG      -0.125500
     20 C24         -5.8730   -28.0780    -2.5100 ca         1 YTG      -0.125000
     21 C25         -6.3640   -26.8020    -2.2700 ca         1 YTG      -0.125500
     22 C26         -6.9840   -26.5100    -1.0610 ca         1 YTG      -0.121000
     23 C12         -9.9280   -27.6050     2.5510 c          1 YTG       0.660100
     24 O2         -10.6000   -26.6140     2.7780 o          1 YTG      -0.589100
     25 N3          -9.6890   -28.5350     3.5060 n          1 YTG      -0.403000
     26 C14        -10.2270   -28.3070     4.8410 c3         1 YTG       0.096300
     27 C13         -8.9740   -29.7380     3.2710 ca         1 YTG       0.038600
     28 C15         -9.5660   -30.7890     2.5790 ca         1 YTG      -0.123500
     29 C16         -8.8720   -31.9710     2.3720 ca         1 YTG      -0.117000
     30 C17         -7.5900   -32.1020     2.8810 ca         1 YTG       0.024400
     31 CL          -6.7250   -33.5810     2.6350 cl         1 YTG      -0.104400
     32 C18         -6.9890   -31.0690     3.5850 ca         1 YTG      -0.117000
     33 C19         -7.6880   -29.8870     3.7760 ca         1 YTG      -0.123500
     34 H1          -9.9380   -29.5290    -6.4620 ha         1 YTG       0.132000
     35 H2         -11.6160   -31.3230    -6.2210 ha         1 YTG       0.144000
     36 H3         -13.9040   -31.4950    -3.5830 ho         1 YTG       0.424000
     37 H4         -13.0880   -29.5890    -2.5800 ha         1 YTG       0.144000
     38 H5          -9.0550   -27.1560    -5.1720 hn         1 YTG       0.299700
     39 H6          -9.6160   -25.8340    -3.1330 h4         1 YTG       0.158000
     40 H7         -11.6910   -25.9000    -1.3250 hc         1 YTG       0.066200
     41 H8         -12.8660   -27.1990    -1.4880 hc         1 YTG       0.066200
     42 H9          -9.7950   -26.2440    -0.1330 hn         1 YTG       0.320500
     43 H10         -9.1700   -28.8630     0.9540 h1         1 YTG       0.092700
     44 H11         -7.2950   -27.6270     2.0490 hc         1 YTG       0.061200
     45 H12         -7.9120   -26.1250     1.3880 hc         1 YTG       0.061200
     46 H13         -6.7200   -29.5310     0.4310 ha         1 YTG       0.128000
     47 H14         -5.6170   -30.0540    -1.7100 ha         1 YTG       0.129500
     48 H15         -5.3910   -28.3070    -3.4520 ha         1 YTG       0.130000
     49 H16         -6.2670   -26.0320    -3.0250 ha         1 YTG       0.129500
     50 H17         -7.3650   -25.5110    -0.8830 ha         1 YTG       0.128000
     51 H18         -9.8860   -29.1030     5.4970 h1         1 YTG       0.045700
     52 H19         -9.8870   -27.3560     5.2480 h1         1 YTG       0.045700
     53 H20        -11.3180   -28.3130     4.8330 h1         1 YTG       0.045700
     54 H21        -10.5680   -30.6790     2.1860 ha         1 YTG       0.155000
     55 H22         -9.3340   -32.7830     1.8260 ha         1 YTG       0.153500
     56 H23         -5.9880   -31.1790     3.9780 ha         1 YTG       0.153500
     57 H24         -7.2240   -29.0730     4.3190 ha         1 YTG       0.155000
@<TRIPOS>BOND
     1     1     2 ar  
     2     1     7 ar  
     3     1    34 1   
     4     2     3 ar  
     5     2    35 1   
     6     3     4 1   
     7     3     5 ar  
     8     4    36 1   
     9     5     6 ar  
    10     5    37 1   
    11     6     7 ar  
    12     6    10 1   
    13     7     8 1   
    14     8     9 1   
    15     8    38 1   
    16     9    10 2   
    17     9    39 1   
    18    10    11 1   
    19    11    12 1   
    20    11    40 1   
    21    11    41 1   
    22    12    13 2   
    23    12    14 1   
    24    14    15 1   
    25    14    42 1   
    26    15    16 1   
    27    15    23 1   
    28    15    43 1   
    29    16    17 1   
    30    16    44 1   
    31    16    45 1   
    32    17    18 ar  
    33    17    22 ar  
    34    18    19 ar  
    35    18    46 1   
    36    19    20 ar  
    37    19    47 1   
    38    20    21 ar  
    39    20    48 1   
    40    21    22 ar  
    41    21    49 1   
    42    22    50 1   
    43    23    24 2   
    44    23    25 1   
    45    25    26 1   
    46    25    27 1   
    47    26    51 1   
    48    26    52 1   
    49    26    53 1   
    50    27    28 ar  
    51    27    33 ar  
    52    28    29 ar  
    53    28    54 1   
    54    29    30 ar  
    55    29    55 1   
    56    30    31 1   
    57    30    32 ar  
    58    32    33 ar  
    59    32    56 1   
    60    33    57 1   
@<TRIPOS>SUBSTRUCTURE
     1 YTG         1 TEMP              0 ****  ****    0 ROOT
