@<TRIPOS>MOLECULE
YTH
   19    18     1     0     0
SMALL
bcc


@<TRIPOS>ATOM
      1 N           14.4880    56.9670   154.6270 n8         1 YTH      -0.936800
      2 CA          14.1410    56.2440   155.8460 c3         1 YTH       0.018500
      3 CB          14.2220    54.7280   155.5620 c3         1 YTH       0.250100
      4 CG2         13.2730    53.9030   156.4180 c3         1 YTH      -0.077100
      5 OG1         15.5270    54.2310   155.7340 os         1 YTH      -0.561200
      6 P           16.5170    53.8890   154.3890 p5         1 YTH       1.296900
      7 O1P         15.6610    53.0140   153.4740 o          1 YTH      -0.940833
      8 O2P         16.8710    55.2570   153.7890 o          1 YTH      -0.940833
      9 O3P         17.6840    53.1790   155.0650 o          1 YTH      -0.940833
     10 C           14.9670    56.6200   157.1030 c          1 YTH       0.935600
     11 O           15.9950    57.3080   156.9380 o          1 YTH      -0.883300
     12 OXT         14.5230    56.2120   158.1990 o          1 YTH      -0.883300
     13 H           14.7320    57.9170   154.8770 hn         1 YTH       0.352300
     14 H2          15.3480    56.5560   154.2610 hn         1 YTH       0.352300
     15 HA          13.0910    56.4670   156.0820 h1         1 YTH      -0.025300
     16 HB          13.9010    54.6040   154.5180 h1         1 YTH      -0.000300
     17 HG21        12.2420    54.2490   156.3110 hc         1 YTH      -0.004633
     18 HG22        13.3030    52.8550   156.1130 hc         1 YTH      -0.004633
     19 HG23        13.5380    53.9640   157.4720 hc         1 YTH      -0.004633
@<TRIPOS>BOND
     1     1     2 1   
     2     1    13 1   
     3     1    14 1   
     4     2     3 1   
     5     2    10 1   
     6     2    15 1   
     7     3     4 1   
     8     3     5 1   
     9     3    16 1   
    10     4    17 1   
    11     4    18 1   
    12     4    19 1   
    13     5     6 1   
    14     6     7 1   
    15     6     8 1   
    16     6     9 1   
    17    10    11 1   
    18    10    12 1   
@<TRIPOS>SUBSTRUCTURE
     1 YTH         1 TEMP              0 ****  ****    0 ROOT
