@<TRIPOS>MOLECULE
YTH
   19    18     1     0     0
SMALL
No Charge or Current Charge


@<TRIPOS>ATOM
      1 N           15.0320    57.1090   154.8190 n8         1 YTH      -0.936800
      2 CA          14.1860    56.3230   155.8090 c3         1 YTH       0.018500
      3 CB          14.2770    54.7780   155.5680 c3         1 YTH       0.250100
      4 CG2         13.5360    53.8870   156.5940 c3         1 YTH      -0.077100
      5 OG1         15.6530    54.3610   155.5210 os         1 YTH      -0.561200
      6 P           16.3120    53.9200   154.1190 p5         1 YTH       1.296900
      7 O1P         15.6110    52.7210   153.5840 o          1 YTH      -0.940833
      8 O2P         16.2240    55.0400   153.1410 o          1 YTH      -0.940833
      9 O3P         17.7430    53.5820   154.3460 o          1 YTH      -0.940833
     10 C           14.3590    56.6680   157.3540 c          1 YTH       0.935600
     11 O           15.4760    56.9520   157.7820 o          1 YTH      -0.883300
     12 OXT         13.3520    56.8670   158.0300 o          1 YTH      -0.883300
     13 H           15.8970    57.3680   155.3040 hn         1 YTH       0.352300
     14 H2          15.3780    56.4260   154.1190 hn         1 YTH       0.352300
     15 HA          13.1530    56.5920   155.5480 h1         1 YTH      -0.025300
     16 HB          13.7990    54.5890   154.5970 h1         1 YTH      -0.000300
     17 HG21        12.4860    54.1910   156.6760 hc         1 YTH      -0.004633
     18 HG22        13.5570    52.8370   156.2780 hc         1 YTH      -0.004633
     19 HG23        13.9940    53.9530   157.5880 hc         1 YTH      -0.004633
@<TRIPOS>BOND
     1     1     2 1   
     2     1    13 1   
     3     1    14 1   
     4     2     3 1   
     5     2    10 1   
     6     2    15 1   
     7     3     4 1   
     8     3     5 1   
     9     3    16 1   
    10     4    17 1   
    11     4    18 1   
    12     4    19 1   
    13     5     6 1   
    14     6     7 1   
    15     6     8 1   
    16     6     9 1   
    17    10    11 1   
    18    10    12 1   
@<TRIPOS>SUBSTRUCTURE
     1 YTH         1 TEMP              0 ****  ****    0 ROOT
