@<TRIPOS>MOLECULE
YTJ
   53    56     1     0     0
SMALL
bcc


@<TRIPOS>ATOM
      1 C24          6.6010    -5.4780    25.6840 c3         1 YTJ       0.139400
      2 C23          6.9880    -4.1320    25.1070 c3         1 YTJ       0.099400
      3 C22          6.4930    -1.8240    25.4560 ca         1 YTJ       0.156100
      4 C25          4.2470    -5.3140    26.0000 c3         1 YTJ       0.124700
      5 C26          7.2420    -1.4200    24.3560 ca         1 YTJ      -0.187000
      6 C21          5.8090    -0.8800    26.2270 ca         1 YTJ      -0.158000
      7 C10         10.3860     4.2850    21.1550 ca         1 YTJ      -0.016000
      8 C1           7.9600    -0.2920    21.5880 c          1 YTJ       0.706700
      9 C12         11.2100     5.4020    21.3030 ca         1 YTJ      -0.087000
     10 C13         12.1510     5.4330    22.3150 ca         1 YTJ      -0.130000
     11 C14         12.2670     4.3510    23.1780 ca         1 YTJ      -0.103000
     12 C15         11.4540     3.2380    23.0250 ca         1 YTJ      -0.126000
     13 C16          8.9190     1.4760    22.9670 cc         1 YTJ      -0.014000
     14 C17          8.1050     0.3900    22.8610 cd         1 YTJ      -0.167400
     15 C18          7.3040    -0.0690    24.0130 ca         1 YTJ       0.014200
     16 C19          6.6210     0.8760    24.7730 ca         1 YTJ      -0.156000
     17 C2           8.5800    -0.3290    19.2540 ca         1 YTJ      -0.110700
     18 C20          5.8910     0.4500    25.8720 ca         1 YTJ       0.061400
     19 C3           7.9030     0.3650    18.2630 ca         1 YTJ       0.417200
     20 C4           8.2760    -1.2920    16.7530 ca         1 YTJ       0.412200
     21 C5           8.9660    -2.0610    17.6800 ca         1 YTJ      -0.242300
     22 C6           9.1240    -1.5690    18.9650 ca         1 YTJ      -0.063000
     23 C7           9.5200     1.3410    20.6790 cd         1 YTJ       0.057600
     24 C8           9.6450     1.9930    21.8650 cc         1 YTJ      -0.162200
     25 C9          10.5060     3.1770    22.0090 ca         1 YTJ       0.013200
     26 N1           8.7160     0.2570    20.5470 n          1 YTJ      -0.254200
     27 N2           7.7570    -0.1030    17.0320 nb         1 YTJ      -0.653000
     28 N3           8.5690     4.3660    19.3250 n1         1 YTJ      -0.362800
     29 O2           6.3670    -3.0990    25.8570 os         1 YTJ      -0.327900
     30 O3           5.3220    -5.9330    25.3340 os         1 YTJ      -0.406600
     31 CL1          5.0380     1.6250    26.8190 cl         1 YTJ      -0.109400
     32 H15          7.3060    -6.2090    25.2840 h1         1 YTJ       0.054200
     33 H16          6.7370    -5.4620    26.7750 h1         1 YTJ       0.054200
     34 H13          8.0780    -4.0290    25.1570 h1         1 YTJ       0.048700
     35 H14          6.6940    -4.0800    24.0530 h1         1 YTJ       0.048700
     36 H19          3.3670    -5.9400    25.8540 h1         1 YTJ       0.033033
     37 H17          4.4270    -5.2270    27.0780 h1         1 YTJ       0.033033
     38 H18          4.0210    -4.3160    25.6140 h1         1 YTJ       0.033033
     39 H20          7.7930    -2.1390    23.7680 ha         1 YTJ       0.149000
     40 H12          5.2280    -1.1990    27.0810 ha         1 YTJ       0.160000
     41 H6          11.0970     6.2440    20.6330 ha         1 YTJ       0.146000
     42 H7          12.7880     6.2990    22.4330 ha         1 YTJ       0.141000
     43 H8          13.0010     4.3690    23.9730 ha         1 YTJ       0.139000
     44 H9          11.5680     2.3960    23.6960 ha         1 YTJ       0.141000
     45 H10          9.0120     1.9750    23.9250 ha         1 YTJ       0.146000
     46 H11          6.6410     1.9230    24.5020 ha         1 YTJ       0.149000
     47 H1           7.4700     1.3370    18.4800 h4         1 YTJ       0.038100
     48 H2           8.1400    -1.6540    15.7400 h4         1 YTJ       0.025100
     49 H3           9.3730    -3.0220    17.3980 ha         1 YTJ       0.148000
     50 H4           9.6640    -2.1280    19.7170 ha         1 YTJ       0.150000
     51 H5          10.0680     1.6290    19.7920 h4         1 YTJ       0.165000
     52 O1           7.2420    -1.2540    21.3720 o          1 YTJ      -0.600500
     53 C11          9.3810     4.3140    20.1410 cg         1 YTJ       0.232800
@<TRIPOS>BOND
     1     1     2 1   
     2     1    30 1   
     3     1    32 1   
     4     1    33 1   
     5     2    29 1   
     6     2    34 1   
     7     2    35 1   
     8     3     5 ar  
     9     3     6 ar  
    10     3    29 1   
    11     4    30 1   
    12     4    36 1   
    13     4    37 1   
    14     4    38 1   
    15     5    15 ar  
    16     5    39 1   
    17     6    18 ar  
    18     6    40 1   
    19     7     9 ar  
    20     7    25 ar  
    21     7    53 1   
    22     8    14 1   
    23     8    26 1   
    24     8    52 2   
    25     9    10 ar  
    26     9    41 1   
    27    10    11 ar  
    28    10    42 1   
    29    11    12 ar  
    30    11    43 1   
    31    12    25 ar  
    32    12    44 1   
    33    13    14 2   
    34    13    24 1   
    35    13    45 1   
    36    14    15 1   
    37    15    16 ar  
    38    16    18 ar  
    39    16    46 1   
    40    17    19 ar  
    41    17    22 ar  
    42    17    26 1   
    43    18    31 1   
    44    19    27 ar  
    45    19    47 1   
    46    20    21 ar  
    47    20    27 ar  
    48    20    48 1   
    49    21    22 ar  
    50    21    49 1   
    51    22    50 1   
    52    23    24 2   
    53    23    26 1   
    54    23    51 1   
    55    24    25 1   
    56    28    53 3   
@<TRIPOS>SUBSTRUCTURE
     1 YTJ         1 TEMP              0 ****  ****    0 ROOT
