@<TRIPOS>MOLECULE
YTJ
   53    56     1     0     0
SMALL
No Charge or Current Charge


@<TRIPOS>ATOM
      1 C24          6.3830    -5.7190    25.5510 c3         1 YTJ       0.162600
      2 C23          6.7820    -4.3370    24.9700 c3         1 YTJ       0.122600
      3 C22          6.5960    -1.9620    25.6370 ca         1 YTJ       0.156100
      4 C25          4.0100    -5.2130    25.9430 c3         1 YTJ       0.147900
      5 C26          7.2360    -1.5000    24.4660 ca         1 YTJ      -0.169000
      6 C21          6.1480    -1.0420    26.5920 ca         1 YTJ      -0.140000
      7 C10         10.3610     4.3030    20.8390 ca         1 YTJ      -0.016000
      8 C1           7.9360    -0.3270    21.6890 c          1 YTJ       0.564200
      9 C12         11.2400     5.4010    20.9490 ca         1 YTJ      -0.069000
     10 C13         12.0430     5.5650    22.0860 ca         1 YTJ      -0.112000
     11 C14         11.9650     4.6380    23.1320 ca         1 YTJ      -0.085000
     12 C15         11.0940     3.5410    23.0350 ca         1 YTJ      -0.108000
     13 C16          8.8050     1.5810    23.0350 cc         1 YTJ      -0.064000
     14 C17          8.1110     0.3770    23.0050 cd         1 YTJ      -0.167400
     15 C18          7.4280    -0.1180    24.2340 ca         1 YTJ       0.014200
     16 C19          6.9750     0.7880    25.2210 ca         1 YTJ      -0.138000
     17 C2           8.6410    -0.2860    19.2640 ca         1 YTJ      -0.045400
     18 C20          6.3390     0.3280    26.3840 ca         1 YTJ       0.153000
     19 C3           8.0900     0.4220    18.1710 ca         1 YTJ       0.351900
     20 C4           8.6360    -1.2720    16.6840 ca         1 YTJ       0.346900
     21 C5           9.1970    -2.0500    17.7110 ca         1 YTJ      -0.159000
     22 C6           9.2000    -1.5550    19.0260 ca         1 YTJ      -0.045000
     23 C7           9.3670     1.4190    20.6860 cd         1 YTJ       0.007600
     24 C8           9.4120     2.1470    21.8590 cc         1 YTJ      -0.162200
     25 C9          10.2920     3.3370    21.8880 ca         1 YTJ       0.013200
     26 N1           8.6110     0.2550    20.5980 n          1 YTJ      -0.187200
     27 N2           8.0870    -0.0540    16.9010 nb         1 YTJ      -0.653000
     28 N3           8.8030     4.2310    18.7490 n1         1 YTJ      -0.452000
     29 O2           6.3930    -3.3020    25.8970 os         1 YTJ      -0.351100
     30 O3           4.9940    -6.0250    25.2710 os         1 YTJ      -0.453000
     31 Cl1          5.7690     1.4810    27.5830 cl         1 YTJ      -0.201000
     32 H15          7.0220    -6.4790    25.0840 h1         1 YTJ       0.054200
     33 H16          6.5870    -5.7420    26.6300 h1         1 YTJ       0.054200
     34 H13          7.8690    -4.3200    24.8230 h1         1 YTJ       0.048700
     35 H14          6.3000    -4.1980    23.9930 h1         1 YTJ       0.048700
     36 H19          3.0050    -5.6220    25.7750 h1         1 YTJ       0.033033
     37 H17          4.1910    -5.1900    27.0250 h1         1 YTJ       0.033033
     38 H18          4.0170    -4.1840    25.5630 h1         1 YTJ       0.033033
     39 H20          7.6210    -2.2180    23.7510 ha         1 YTJ       0.131000
     40 H12          5.6550    -1.3920    27.4940 ha         1 YTJ       0.142000
     41 H6          11.2890     6.1440    20.1540 ha         1 YTJ       0.128000
     42 H7          12.7160     6.4170    22.1610 ha         1 YTJ       0.123000
     43 H8          12.5840     4.7640    24.0180 ha         1 YTJ       0.121000
     44 H9          11.0760     2.8250    23.8520 ha         1 YTJ       0.123000
     45 H10          8.9220     2.1240    23.9670 ha         1 YTJ       0.196000
     46 H11          7.0740     1.8600    25.0850 ha         1 YTJ       0.131000
     47 H1           7.6360     1.4020    18.3180 h4         1 YTJ       0.038100
     48 H2           8.6220    -1.6350    15.6570 h4         1 YTJ       0.025100
     49 H3           9.6210    -3.0230    17.4840 ha         1 YTJ       0.130000
     50 H4           9.6270    -2.1390    19.8380 ha         1 YTJ       0.132000
     51 H5           9.9140     1.6680    19.7810 h4         1 YTJ       0.215000
     52 O1           7.2440    -1.3250    21.5280 o          1 YTJ      -0.525000
     53 C11          9.4950     4.2670    19.6880 cg         1 YTJ       0.322000
@<TRIPOS>BOND
     1     1     2 1   
     2     1    30 1   
     3     1    32 1   
     4     1    33 1   
     5     2    29 1   
     6     2    34 1   
     7     2    35 1   
     8     3     5 ar  
     9     3     6 ar  
    10     3    29 1   
    11     4    30 1   
    12     4    36 1   
    13     4    37 1   
    14     4    38 1   
    15     5    15 ar  
    16     5    39 1   
    17     6    18 ar  
    18     6    40 1   
    19     7     9 ar  
    20     7    25 ar  
    21     7    53 1   
    22     8    14 1   
    23     8    26 1   
    24     8    52 2   
    25     9    10 ar  
    26     9    41 1   
    27    10    11 ar  
    28    10    42 1   
    29    11    12 ar  
    30    11    43 1   
    31    12    25 ar  
    32    12    44 1   
    33    13    14 2   
    34    13    24 1   
    35    13    45 1   
    36    14    15 1   
    37    15    16 ar  
    38    16    18 ar  
    39    16    46 1   
    40    17    19 ar  
    41    17    22 ar  
    42    17    26 1   
    43    18    31 1   
    44    19    27 ar  
    45    19    47 1   
    46    20    21 ar  
    47    20    27 ar  
    48    20    48 1   
    49    21    22 ar  
    50    21    49 1   
    51    22    50 1   
    52    23    24 2   
    53    23    26 1   
    54    23    51 1   
    55    24    25 1   
    56    28    53 3   
@<TRIPOS>SUBSTRUCTURE
     1 YTJ         1 TEMP              0 ****  ****    0 ROOT
