@<TRIPOS>MOLECULE
YTM
   58    62     1     0     0
SMALL
abcg2


@<TRIPOS>ATOM
      1 C1         -13.9470   -27.2670     1.1970 c          1 YTM       0.563200
      2 C2         -14.7120   -27.7850     0.0830 cc         1 YTM      -0.168400
      3 C3         -16.0960   -27.3080    -0.1070 ca         1 YTM       0.010200
      4 C4         -17.1360   -28.2380    -0.1700 ca         1 YTM      -0.138000
      5 C5         -18.4220   -27.7800    -0.3840 ca         1 YTM       0.157000
      6 C6         -18.7160   -26.4350    -0.5470 ca         1 YTM      -0.196000
      7 O1         -14.3360   -26.4380     2.0050 o          1 YTM      -0.521000
      8 C7         -17.6700   -25.5170    -0.4900 ca         1 YTM       0.159100
      9 C8         -19.1200   -23.6770    -0.9260 c3         1 YTM       0.166600
     10 C9         -18.9920   -22.1790    -1.1340 c3         1 YTM      -0.031100
     11 O3         -11.2960   -31.5780     0.1420 o          1 YTM      -0.526000
     12 O4         -10.8820   -32.9390    -4.1590 o          1 YTM      -0.543000
     13 C10        -18.1350   -21.8260    -2.3180 ca         1 YTM      -0.079300
     14 C11        -18.6740   -21.8250    -3.6030 ca         1 YTM      -0.099000
     15 C12        -17.8860   -21.5260    -4.7060 ca         1 YTM      -0.111500
     16 C13        -16.5410   -21.2220    -4.5390 ca         1 YTM      -0.110000
     17 C14        -15.9930   -21.2200    -3.2620 ca         1 YTM      -0.111500
     18 C15        -16.7860   -21.5210    -2.1620 ca         1 YTM      -0.099000
     19 C16        -16.3660   -25.9560    -0.2610 ca         1 YTM      -0.117000
     20 C17        -14.1770   -28.7260    -0.7430 cd         1 YTM      -0.072000
     21 C18        -12.8570   -29.2210    -0.5840 cd         1 YTM      -0.144000
     22 C19        -12.2950   -30.2020    -1.5190 cd         1 YTM      -0.209200
     23 C20        -11.5450   -31.3490    -1.0260 c          1 YTM       0.592200
     24 C21        -12.4860   -30.1000    -2.8520 cc         1 YTM       0.003600
     25 C22        -11.3030   -32.1240    -3.3680 c          1 YTM       0.616000
     26 C23        -12.1430   -28.7330     0.4650 cc         1 YTM       0.020600
     27 C24        -11.8650   -27.3690     2.4090 ca         1 YTM      -0.040400
     28 C25        -10.8740   -26.4230     2.2210 ca         1 YTM      -0.060000
     29 C26        -10.1140   -26.0510     3.3180 ca         1 YTM      -0.160000
     30 C27        -10.3890   -26.6360     4.5450 ca         1 YTM       0.348900
     31 C28        -12.0650   -27.9030     3.6740 ca         1 YTM       0.370900
     32 N1         -11.1090   -32.2180    -2.0130 ns         1 YTM      -0.469500
     33 N2         -12.0190   -31.0160    -3.7370 ns         1 YTM      -0.514600
     34 N3         -12.6680   -27.8150     1.3170 n          1 YTM      -0.191200
     35 N4         -11.3420   -27.5440     4.7230 nb         1 YTM      -0.656000
     36 CL1        -19.7240   -28.9230    -0.4410 cl         1 YTM      -0.207000
     37 H1         -16.9400   -29.2930    -0.0360 ha         1 YTM       0.132000
     38 H2         -19.7390   -26.1280    -0.7120 ha         1 YTM       0.132000
     39 H4         -19.5360   -24.1480    -1.8240 h1         1 YTM       0.038700
     40 H3         -19.8020   -23.8810    -0.0940 h1         1 YTM       0.038700
     41 H6         -18.6010   -21.7180    -0.2240 hc         1 YTM       0.060200
     42 H5         -20.0030   -21.7900    -1.2710 hc         1 YTM       0.060200
     43 H7         -19.7250   -22.0550    -3.7410 ha         1 YTM       0.112000
     44 H8         -18.3230   -21.5260    -5.6970 ha         1 YTM       0.111500
     45 H9         -15.9250   -20.9850    -5.3960 ha         1 YTM       0.111000
     46 H10        -14.9460   -20.9810    -3.1220 ha         1 YTM       0.111500
     47 H11        -16.3520   -21.5120    -1.1690 ha         1 YTM       0.112000
     48 H12        -15.5660   -25.2280    -0.2260 ha         1 YTM       0.139000
     49 H13        -14.7820   -29.1090    -1.5580 ha         1 YTM       0.187000
     50 H15        -13.0210   -29.2710    -3.2960 h4         1 YTM       0.211000
     51 H17        -11.1280   -29.0350     0.6770 h4         1 YTM       0.221000
     52 H18        -10.7000   -25.9910     1.2430 ha         1 YTM       0.128000
     53 H19         -9.3240   -25.3170     3.2260 ha         1 YTM       0.129000
     54 H20         -9.8120   -26.3610     5.4210 h4         1 YTM       0.025100
     55 H21        -12.8350   -28.6510     3.8320 h4         1 YTM       0.036100
     56 H14        -10.5840   -33.0260    -1.7000 hn         1 YTM       0.346500
     57 H16        -12.1910   -30.8850    -4.7230 hn         1 YTM       0.466000
     58 O2         -17.8290   -24.1940    -0.6480 os         1 YTM      -0.340100
@<TRIPOS>BOND
     1     1     2 1   
     2     1     7 2   
     3     1    34 1   
     4     2     3 1   
     5     2    20 2   
     6     3     4 ar  
     7     3    19 ar  
     8     4     5 ar  
     9     4    37 1   
    10     5     6 ar  
    11     5    36 1   
    12     6     8 ar  
    13     6    38 1   
    14     8    19 ar  
    15     8    58 1   
    16     9    10 1   
    17     9    39 1   
    18     9    40 1   
    19     9    58 1   
    20    10    13 1   
    21    10    41 1   
    22    10    42 1   
    23    11    23 2   
    24    12    25 2   
    25    13    14 ar  
    26    13    18 ar  
    27    14    15 ar  
    28    14    43 1   
    29    15    16 ar  
    30    15    44 1   
    31    16    17 ar  
    32    16    45 1   
    33    17    18 ar  
    34    17    46 1   
    35    18    47 1   
    36    19    48 1   
    37    20    21 1   
    38    20    49 1   
    39    21    22 1   
    40    21    26 2   
    41    22    23 1   
    42    22    24 2   
    43    23    32 1   
    44    24    33 1   
    45    24    50 1   
    46    25    32 1   
    47    25    33 1   
    48    26    34 1   
    49    26    51 1   
    50    27    28 ar  
    51    27    31 ar  
    52    27    34 1   
    53    28    29 ar  
    54    28    52 1   
    55    29    30 ar  
    56    29    53 1   
    57    30    35 ar  
    58    30    54 1   
    59    31    35 ar  
    60    31    55 1   
    61    32    56 1   
    62    33    57 1   
@<TRIPOS>SUBSTRUCTURE
     1 YTM         1 TEMP              0 ****  ****    0 ROOT
