@<TRIPOS>MOLECULE
YTM
   58    62     1     0     0
SMALL
No Charge or Current Charge


@<TRIPOS>ATOM
      1 C1         -14.0720   -27.3530     1.3540 c          1 YTM       0.563200
      2 C2         -14.8130   -27.8370     0.1700 cc         1 YTM      -0.168400
      3 C3         -16.1720   -27.3850    -0.1300 ca         1 YTM       0.010200
      4 C4         -17.2230   -28.3130    -0.2470 ca         1 YTM      -0.138000
      5 C5         -18.5240   -27.8760    -0.5370 ca         1 YTM       0.157000
      6 C6         -18.7920   -26.5100    -0.7150 ca         1 YTM      -0.196000
      7 O1         -14.5490   -26.5350     2.1310 o          1 YTM      -0.521000
      8 C7         -17.7450   -25.5720    -0.5990 ca         1 YTM       0.159100
      9 C8         -19.2290   -23.6600    -1.0840 c3         1 YTM       0.166600
     10 C9         -19.0710   -22.1320    -1.2180 c3         1 YTM      -0.031100
     11 O3         -10.0010   -30.2860    -0.6060 o          1 YTM      -0.526000
     12 O4         -10.7880   -32.7790    -4.2400 o          1 YTM      -0.543000
     13 C10        -18.1550   -21.7280    -2.3700 ca         1 YTM      -0.079300
     14 C11        -18.6420   -21.7160    -3.6920 ca         1 YTM      -0.099000
     15 C12        -17.7990   -21.3480    -4.7550 ca         1 YTM      -0.111500
     16 C13        -16.4650   -20.9890    -4.5030 ca         1 YTM      -0.110000
     17 C14        -15.9730   -20.9990    -3.1870 ca         1 YTM      -0.111500
     18 C15        -16.8150   -21.3680    -2.1240 ca         1 YTM      -0.099000
     19 C16        -16.4450   -26.0150    -0.3080 ca         1 YTM      -0.117000
     20 C17        -14.2770   -28.7100    -0.7560 cd         1 YTM      -0.072000
     21 C18        -12.9290   -29.2080    -0.5650 cd         1 YTM      -0.144000
     22 C19        -12.2680   -30.1450    -1.4920 cd         1 YTM      -0.209200
     23 C20        -10.8340   -30.6260    -1.4280 c          1 YTM       0.592200
     24 C21        -13.0490   -30.6360    -2.5330 cc         1 YTM       0.003600
     25 C22        -11.2170   -31.9940    -3.4180 c          1 YTM       0.616000
     26 C23        -12.2460   -28.7810     0.5680 cc         1 YTM       0.020600
     27 C24        -11.8950   -27.3980     2.5730 ca         1 YTM      -0.040400
     28 C25        -10.5030   -27.2450     2.3720 ca         1 YTM      -0.060000
     29 C26         -9.6930   -26.8800     3.4600 ca         1 YTM      -0.160000
     30 C27        -10.2740   -26.7110     4.7260 ca         1 YTM       0.348900
     31 C28        -12.3730   -27.2480     3.9020 ca         1 YTM       0.370900
     32 N1         -10.4730   -31.5050    -2.4040 ns         1 YTM      -0.469500
     33 N2         -12.4910   -31.5280    -3.4380 ns         1 YTM      -0.514600
     34 N3         -12.7670   -27.8800     1.5110 n          1 YTM      -0.191200
     35 N4         -11.5910   -26.9020     4.9550 nb         1 YTM      -0.656000
     36 Cl1        -19.8280   -29.0460    -0.6790 cl         1 YTM      -0.207000
     37 H1         -17.0340   -29.3740    -0.1070 ha         1 YTM       0.132000
     38 H2         -19.8080   -26.2030    -0.9380 ha         1 YTM       0.132000
     39 H4         -19.6080   -24.0720    -2.0280 h1         1 YTM       0.038700
     40 H3         -19.9530   -23.8810    -0.2890 h1         1 YTM       0.038700
     41 H6         -18.7010   -21.7290    -0.2680 hc         1 YTM       0.060200
     42 H5         -20.0650   -21.6930    -1.3650 hc         1 YTM       0.060200
     43 H7         -19.6740   -21.9940    -3.8960 ha         1 YTM       0.112000
     44 H8         -18.1810   -21.3400    -5.7730 ha         1 YTM       0.111500
     45 H9         -15.8130   -20.7040    -5.3260 ha         1 YTM       0.111000
     46 H10        -14.9390   -20.7230    -2.9910 ha         1 YTM       0.111500
     47 H11        -16.4240   -21.3780    -1.1080 ha         1 YTM       0.112000
     48 H12        -15.6430   -25.2870    -0.2230 ha         1 YTM       0.139000
     49 H13        -14.8830   -28.9740    -1.6130 ha         1 YTM       0.187000
     50 H15        -14.0910   -30.4370    -2.7540 h4         1 YTM       0.211000
     51 H17        -11.2750   -29.1280     0.8770 h4         1 YTM       0.221000
     52 H18        -10.0530   -27.3670     1.3890 ha         1 YTM       0.128000
     53 H19         -8.6250   -26.7290     3.3310 ha         1 YTM       0.129000
     54 H20         -9.6650   -26.4300     5.5840 h4         1 YTM       0.025100
     55 H21        -13.4170   -27.4410     4.1460 h4         1 YTM       0.036100
     56 H14         -9.5210   -31.8300    -2.3670 hn         1 YTM       0.346500
     57 H16        -13.0510   -31.8990    -4.2030 hn         1 YTM       0.466000
     58 O2         -17.9410   -24.2170    -0.7630 os         1 YTM      -0.340100
@<TRIPOS>BOND
     1     1     2 1   
     2     1     7 2   
     3     1    34 1   
     4     2     3 1   
     5     2    20 2   
     6     3     4 ar  
     7     3    19 ar  
     8     4     5 ar  
     9     4    37 1   
    10     5     6 ar  
    11     5    36 1   
    12     6     8 ar  
    13     6    38 1   
    14     8    19 ar  
    15     8    58 1   
    16     9    10 1   
    17     9    39 1   
    18     9    40 1   
    19     9    58 1   
    20    10    13 1   
    21    10    41 1   
    22    10    42 1   
    23    11    23 2   
    24    12    25 2   
    25    13    14 ar  
    26    13    18 ar  
    27    14    15 ar  
    28    14    43 1   
    29    15    16 ar  
    30    15    44 1   
    31    16    17 ar  
    32    16    45 1   
    33    17    18 ar  
    34    17    46 1   
    35    18    47 1   
    36    19    48 1   
    37    20    21 1   
    38    20    49 1   
    39    21    22 1   
    40    21    26 2   
    41    22    23 1   
    42    22    24 2   
    43    23    32 1   
    44    24    33 1   
    45    24    50 1   
    46    25    32 1   
    47    25    33 1   
    48    26    34 1   
    49    26    51 1   
    50    27    28 ar  
    51    27    31 ar  
    52    27    34 1   
    53    28    29 ar  
    54    28    52 1   
    55    29    30 ar  
    56    29    53 1   
    57    30    35 ar  
    58    30    54 1   
    59    31    35 ar  
    60    31    55 1   
    61    32    56 1   
    62    33    57 1   
@<TRIPOS>SUBSTRUCTURE
     1 YTM         1 TEMP              0 ****  ****    0 ROOT
