@<TRIPOS>MOLECULE
YTN
   53    56     1     0     0
SMALL
bcc


@<TRIPOS>ATOM
      1 C01        -18.5650    20.4560   -24.3720 ca         1 YTN       0.065100
      2 C02        -19.6600    21.2760   -24.5940 ca         1 YTN       0.053100
      3 C03        -19.8350    22.4410   -23.8930 ca         1 YTN      -0.120000
      4 C04        -18.8510    22.7670   -22.9490 ca         1 YTN      -0.127000
      5 C05        -17.7470    21.9590   -22.7260 ca         1 YTN      -0.077300
      6 C06        -17.5950    20.7690   -23.4580 ca         1 YTN      -0.110000
      7 C07        -19.8650    19.4820   -25.8980 c5         1 YTN       0.327200
      8 C09        -17.6290    21.6310   -19.4010 c5         1 YTN      -0.167700
      9 C10        -16.6230    21.3850   -20.5240 c5         1 YTN      -0.097700
     10 C11        -16.6900    22.3300   -21.7200 c3         1 YTN      -0.012100
     11 C12        -16.9090    21.0460   -18.2030 c          1 YTN       0.725600
     12 C13        -15.3120    21.5050   -19.7570 c5         1 YTN       0.128400
     13 C14        -19.3460    19.8760   -20.2380 ca         1 YTN      -0.009300
     14 C15        -20.3160    19.8200   -21.2300 ca         1 YTN      -0.238500
     15 C16        -20.6080    18.6160   -21.8670 ca         1 YTN       0.156100
     16 C17        -19.9190    17.4560   -21.5150 ca         1 YTN       0.029100
     17 C18        -18.9370    17.5140   -20.5200 ca         1 YTN       0.156100
     18 C19        -18.6660    18.7170   -19.8730 ca         1 YTN      -0.238500
     19 C20        -17.3280    16.3340   -19.2420 c3         1 YTN       0.121200
     20 C21        -19.4620    15.9900   -23.2780 c3         1 YTN       0.126700
     21 C22        -22.5050    19.4990   -22.9770 c3         1 YTN       0.121200
     22 O01        -18.6340    19.3800   -25.1940 os         1 YTN      -0.319900
     23 O02        -20.4380    20.7390   -25.5680 os         1 YTN      -0.322900
     24 O03        -15.5970    21.0050   -18.4420 os         1 YTN      -0.401900
     25 O04        -17.3690    20.6780   -17.1570 o          1 YTN      -0.562500
     26 O05        -18.3220    16.3500   -20.2450 os         1 YTN      -0.305400
     27 O06        -20.2210    16.2710   -22.1120 os         1 YTN      -0.304900
     28 O07        -21.5330    18.4820   -22.8370 os         1 YTN      -0.305400
     29 H1         -20.6880    23.0850   -24.0600 ha         1 YTN       0.151000
     30 H2         -18.9590    23.6830   -22.3800 ha         1 YTN       0.134000
     31 H3         -16.7400    20.1210   -23.3060 ha         1 YTN       0.150000
     32 H4         -20.5350    18.6740   -25.5890 h2         1 YTN       0.068200
     33 H5         -19.5990    21.9740   -20.1340 hc         1 YTN       0.063200
     34 H6         -19.5500    21.2030   -18.5750 hc         1 YTN       0.063200
     35 H7         -17.6480    22.7130   -19.2010 hc         1 YTN       0.074700
     36 H8         -16.7220    20.3530   -20.8750 hc         1 YTN       0.083700
     37 H9         -15.7160    22.3210   -22.2200 hc         1 YTN       0.052200
     38 H10        -16.8450    23.3530   -21.3690 hc         1 YTN       0.052200
     39 H11        -14.5040    20.9110   -20.1830 h1         1 YTN       0.063200
     40 H12        -14.9820    22.5450   -19.6770 h1         1 YTN       0.063200
     41 H13        -20.8290    20.7290   -21.5120 ha         1 YTN       0.140500
     42 H14        -17.9300    18.7500   -19.0830 ha         1 YTN       0.140500
     43 H15        -16.9590    15.3130   -19.1890 h1         1 YTN       0.042533
     44 H16        -16.4930    16.9980   -19.4820 h1         1 YTN       0.042533
     45 H17        -17.7290    16.6140   -18.2640 h1         1 YTN       0.042533
     46 H18        -19.8290    15.0480   -23.6820 h1         1 YTN       0.032367
     47 H19        -19.5800    16.7650   -24.0390 h1         1 YTN       0.032367
     48 H20        -18.3980    15.8820   -23.0540 h1         1 YTN       0.032367
     49 H21        -23.2160    19.1470   -23.7210 h1         1 YTN       0.042533
     50 H22        -23.0340    19.6810   -22.0380 h1         1 YTN       0.042533
     51 H23        -22.0780    20.4420   -23.3250 h1         1 YTN       0.042533
     52 H25        -19.6810    19.4310   -26.9730 h2         1 YTN       0.068200
     53 C08        -19.0860    21.1990   -19.5660 c3         1 YTN      -0.010100
@<TRIPOS>BOND
     1     1     2 ar  
     2     1     6 ar  
     3     1    22 1   
     4     2     3 ar  
     5     2    23 1   
     6     3     4 ar  
     7     3    29 1   
     8     4     5 ar  
     9     4    30 1   
    10     5     6 ar  
    11     5    10 1   
    12     6    31 1   
    13     7    22 1   
    14     7    23 1   
    15     7    32 1   
    16     7    52 1   
    17     8     9 1   
    18     8    11 1   
    19     8    35 1   
    20     8    53 1   
    21     9    10 1   
    22     9    12 1   
    23     9    36 1   
    24    10    37 1   
    25    10    38 1   
    26    11    24 1   
    27    11    25 2   
    28    12    24 1   
    29    12    39 1   
    30    12    40 1   
    31    13    14 ar  
    32    13    18 ar  
    33    13    53 1   
    34    14    15 ar  
    35    14    41 1   
    36    15    16 ar  
    37    15    28 1   
    38    16    17 ar  
    39    16    27 1   
    40    17    18 ar  
    41    17    26 1   
    42    18    42 1   
    43    19    26 1   
    44    19    43 1   
    45    19    44 1   
    46    19    45 1   
    47    20    27 1   
    48    20    46 1   
    49    20    47 1   
    50    20    48 1   
    51    21    28 1   
    52    21    49 1   
    53    21    50 1   
    54    21    51 1   
    55    33    53 1   
    56    34    53 1   
@<TRIPOS>SUBSTRUCTURE
     1 YTN         1 TEMP              0 ****  ****    0 ROOT
