@<TRIPOS>MOLECULE
YTN
   53    56     1     0     0
SMALL
No Charge or Current Charge


@<TRIPOS>ATOM
      1 C01        -18.5130    20.3080   -24.2240 ca         1 YTN       0.065100
      2 C02        -19.5910    21.1010   -24.4980 ca         1 YTN       0.053100
      3 C03        -19.7760    22.3350   -23.8630 ca         1 YTN      -0.102000
      4 C04        -18.8130    22.7440   -22.9140 ca         1 YTN      -0.109000
      5 C05        -17.6920    21.9240   -22.6250 ca         1 YTN      -0.077300
      6 C06        -17.5360    20.6890   -23.2990 ca         1 YTN      -0.092000
      7 C07        -19.8250    19.2170   -25.6170 c5         1 YTN       0.373600
      8 C09        -17.6540    21.6540   -19.2740 c5         1 YTN      -0.167700
      9 C10        -16.5580    21.4540   -20.3610 c5         1 YTN      -0.097700
     10 C11        -16.6460    22.3700   -21.6080 c3         1 YTN      -0.012100
     11 C12        -17.0120    20.9580   -18.0660 c          1 YTN       0.650100
     12 C13        -15.3270    21.7190   -19.4440 c5         1 YTN       0.151600
     13 C14        -19.4000    19.9830   -20.3900 ca         1 YTN      -0.009300
     14 C15        -20.4960    19.9600   -21.2640 ca         1 YTN      -0.220500
     15 C16        -20.7880    18.8140   -22.0320 ca         1 YTN       0.156100
     16 C17        -19.9680    17.6650   -21.9420 ca         1 YTN       0.029100
     17 C18        -18.8660    17.6710   -21.0330 ca         1 YTN       0.156100
     18 C19        -18.6130    18.8260   -20.2570 ca         1 YTN      -0.220500
     19 C20        -16.9110    16.5100   -20.0270 c3         1 YTN       0.144400
     20 C21        -19.5600    15.3750   -22.8980 c3         1 YTN       0.149900
     21 C22        -22.8030    19.8720   -23.0160 c3         1 YTN       0.144400
     22 O01        -18.5080    19.1700   -24.9640 os         1 YTN      -0.343100
     23 O02        -20.4000    20.5610   -25.4450 os         1 YTN      -0.346100
     24 O03        -15.6550    21.0580   -18.1960 os         1 YTN      -0.425100
     25 O04        -17.5560    20.2890   -17.2000 o          1 YTN      -0.487000
     26 O05        -18.0560    16.5540   -20.8980 os         1 YTN      -0.328600
     27 O06        -20.3180    16.5890   -22.7630 os         1 YTN      -0.328100
     28 O07        -21.8770    18.7790   -22.8900 os         1 YTN      -0.328600
     29 H1         -20.6350    22.9590   -24.0970 ha         1 YTN       0.133000
     30 H2         -18.9380    23.6970   -22.4050 ha         1 YTN       0.116000
     31 H3         -16.6820    20.0450   -23.1090 ha         1 YTN       0.132000
     32 H4         -20.4840    18.4860   -25.1330 h2         1 YTN       0.068200
     33 H5         -19.5790    22.1010   -20.1250 hc         1 YTN       0.063200
     34 H6         -19.6970    21.2090   -18.6440 hc         1 YTN       0.063200
     35 H7         -17.6610    22.7210   -19.0190 hc         1 YTN       0.074700
     36 H8         -16.5110    20.4200   -20.7180 hc         1 YTN       0.083700
     37 H9         -15.6690    22.3870   -22.1070 hc         1 YTN       0.052200
     38 H10        -16.8300    23.4060   -21.2960 hc         1 YTN       0.052200
     39 H11        -14.3900    21.3160   -19.8510 h1         1 YTN       0.063200
     40 H12        -15.1920    22.7920   -19.2500 h1         1 YTN       0.063200
     41 H13        -21.1140    20.8490   -21.3420 ha         1 YTN       0.122500
     42 H14        -17.7970    18.8360   -19.5460 ha         1 YTN       0.122500
     43 H15        -16.4170    15.5330   -20.1000 h1         1 YTN       0.042533
     44 H16        -16.1800    17.2810   -20.3030 h1         1 YTN       0.042533
     45 H17        -17.2090    16.6600   -18.9810 h1         1 YTN       0.042533
     46 H18        -20.0270    14.7220   -23.6470 h1         1 YTN       0.032367
     47 H19        -18.5360    15.5870   -23.2300 h1         1 YTN       0.032367
     48 H20        -19.5280    14.8230   -21.9500 h1         1 YTN       0.032367
     49 H21        -23.5850    19.6240   -23.7440 h1         1 YTN       0.042533
     50 H22        -23.2870    20.0850   -22.0540 h1         1 YTN       0.042533
     51 H23        -22.2930    20.7800   -23.3630 h1         1 YTN       0.042533
     52 H25        -19.7250    18.9840   -26.6840 h2         1 YTN       0.068200
     53 C08        -19.1310    21.2590   -19.5820 c3         1 YTN      -0.010100
@<TRIPOS>BOND
     1     1     2 ar  
     2     1     6 ar  
     3     1    22 1   
     4     2     3 ar  
     5     2    23 1   
     6     3     4 ar  
     7     3    29 1   
     8     4     5 ar  
     9     4    30 1   
    10     5     6 ar  
    11     5    10 1   
    12     6    31 1   
    13     7    22 1   
    14     7    23 1   
    15     7    32 1   
    16     7    52 1   
    17     8     9 1   
    18     8    11 1   
    19     8    35 1   
    20     8    53 1   
    21     9    10 1   
    22     9    12 1   
    23     9    36 1   
    24    10    37 1   
    25    10    38 1   
    26    11    24 1   
    27    11    25 2   
    28    12    24 1   
    29    12    39 1   
    30    12    40 1   
    31    13    14 ar  
    32    13    18 ar  
    33    13    53 1   
    34    14    15 ar  
    35    14    41 1   
    36    15    16 ar  
    37    15    28 1   
    38    16    17 ar  
    39    16    27 1   
    40    17    18 ar  
    41    17    26 1   
    42    18    42 1   
    43    19    26 1   
    44    19    43 1   
    45    19    44 1   
    46    19    45 1   
    47    20    27 1   
    48    20    46 1   
    49    20    47 1   
    50    20    48 1   
    51    21    28 1   
    52    21    49 1   
    53    21    50 1   
    54    21    51 1   
    55    33    53 1   
    56    34    53 1   
@<TRIPOS>SUBSTRUCTURE
     1 YTN         1 TEMP              0 ****  ****    0 ROOT
