@<TRIPOS>MOLECULE
YTO
   53    56     1     0     0
SMALL
No Charge or Current Charge


@<TRIPOS>ATOM
      1 N12        -22.8360   -11.0320    11.9900 na         1 YTO      -0.187700
      2 C13        -22.4340   -10.6320    10.6980 cc         1 YTO      -0.054300
      3 C24        -20.2300   -10.1540     3.9220 c3         1 YTO      -0.323100
      4 C31        -21.9090   -14.3090    10.9070 ca         1 YTO      -0.065000
      5 C30        -22.2040   -12.9380    11.0020 ca         1 YTO      -0.085800
      6 C29        -20.3120   -11.1030     8.3990 ca         1 YTO      -0.108000
      7 C32        -22.1670   -15.1190    12.0320 ca         1 YTO      -0.160000
      8 C33        -22.6880   -14.5560    13.2190 ca         1 YTO      -0.106000
      9 C27        -19.6170   -11.2850     7.1940 ca         1 YTO       0.165000
     10 O25        -21.3140   -12.5080     3.4220 o          1 YTO      -0.536000
     11 C14        -22.5030    -9.2470    10.1280 c          1 YTO       0.723200
     12 C20        -20.9340   -13.2660     6.7270 ca         1 YTO      -0.068000
     13 C19        -21.6260   -13.0820     7.9360 ca         1 YTO      -0.135000
     14 C21        -19.9240   -12.3670     6.3430 ca         1 YTO      -0.162300
     15 C18        -21.3300   -11.9960     8.7850 ca         1 YTO       0.095200
     16 C17        -22.0510   -11.8310    10.0670 cd         1 YTO      -0.155400
     17 C11        -22.6870   -12.3940    12.1600 ca         1 YTO      -0.052200
     18 C10        -22.9500   -13.1700    13.3060 ca         1 YTO      -0.146300
     19 C01        -22.4050   -11.7670    15.3640 c3         1 YTO      -0.085100
     20 C02        -23.4830   -12.5650    14.6100 c3         1 YTO       0.219600
     21 C05        -26.4030   -13.1440    14.7790 cc         1 YTO      -0.213300
     22 C06        -26.7410   -14.4660    14.7060 cd         1 YTO       0.195900
     23 F28        -18.6400   -10.4120     6.8600 f          1 YTO      -0.199000
     24 N07        -27.3070   -14.8520    15.9050 nd         1 YTO      -0.371000
     25 N08        -27.3330   -13.8340    16.7240 nc         1 YTO      -0.217800
     26 N09        -26.7830   -12.7840    16.0500 na         1 YTO       0.001800
     27 O03        -24.5730   -11.6570    14.3390 os         1 YTO      -0.458000
     28 O15        -22.8400    -8.3480    10.8880 o          1 YTO      -0.697000
     29 O16        -22.2960    -9.0470     8.9400 o          1 YTO      -0.697000
     30 O26        -19.0440   -11.9780     2.4300 o          1 YTO      -0.536000
     31 S23        -19.9870   -11.8910     3.5520 s6         1 YTO       1.063000
     32 H121       -23.2200   -10.4060    12.6900 hn         1 YTO       0.379000
     33 H243       -20.8890   -10.0880     4.7940 h1         1 YTO       0.106700
     34 H242       -19.2480    -9.7180     4.1330 h1         1 YTO       0.106700
     35 H241       -20.6900    -9.6900     3.0440 h1         1 YTO       0.106700
     36 H311       -21.4830   -14.7450    10.0090 ha         1 YTO       0.108000
     37 H291       -20.0330   -10.2790     9.0470 ha         1 YTO       0.153000
     38 H321       -21.9540   -16.1840    11.9880 ha         1 YTO       0.097000
     39 H331       -22.8740   -15.1990    14.0770 ha         1 YTO       0.095000
     40 H201       -21.1920   -14.1060     6.0850 ha         1 YTO       0.110000
     41 H191       -22.4230   -13.7720     8.1980 ha         1 YTO       0.119000
     42 H013       -22.8080   -11.3710    16.3030 hc         1 YTO       0.045033
     43 H012       -21.5540   -12.4150    15.6050 hc         1 YTO       0.045033
     44 H011       -22.0370   -10.9280    14.7620 hc         1 YTO       0.045033
     45 H021       -23.8190   -13.3770    15.2700 h1         1 YTO       0.035700
     46 H041       -25.5220   -12.8140    12.8500 h1         1 YTO       0.077700
     47 H042       -26.4700   -11.4580    13.4760 h1         1 YTO       0.077700
     48 H061       -26.6140   -15.1520    13.8770 h4         1 YTO       0.051100
     49 H222       -19.0560   -13.6500     4.8190 h1         1 YTO       0.097700
     50 H221       -18.1810   -12.1240     5.0570 h1         1 YTO       0.097700
     51 H091       -26.6850   -11.8700    16.4860 hn         1 YTO       0.380000
     52 C04        -25.7580   -12.2440    13.7590 c3         1 YTO       0.223900
     53 C22        -19.1760   -12.5810     5.0210 c3         1 YTO      -0.201100
@<TRIPOS>BOND
     1     1     2 1   
     2     1    17 1   
     3     1    32 1   
     4     2    11 1   
     5     2    16 2   
     6     3    31 1   
     7     3    33 1   
     8     3    34 1   
     9     3    35 1   
    10     4     5 ar  
    11     4     7 ar  
    12     4    36 1   
    13     5    16 1   
    14     5    17 ar  
    15     6     9 ar  
    16     6    15 ar  
    17     6    37 1   
    18     7     8 ar  
    19     7    38 1   
    20     8    18 ar  
    21     8    39 1   
    22     9    14 ar  
    23     9    23 1   
    24    10    31 2   
    25    11    28 1   
    26    11    29 1   
    27    12    13 ar  
    28    12    14 ar  
    29    12    40 1   
    30    13    15 ar  
    31    13    41 1   
    32    14    53 1   
    33    15    16 1   
    34    17    18 ar  
    35    18    20 1   
    36    19    20 1   
    37    19    42 1   
    38    19    43 1   
    39    19    44 1   
    40    20    27 1   
    41    20    45 1   
    42    21    22 2   
    43    21    26 1   
    44    21    52 1   
    45    22    24 1   
    46    22    48 1   
    47    24    25 2   
    48    25    26 1   
    49    26    51 1   
    50    27    52 1   
    51    30    31 2   
    52    31    53 1   
    53    46    52 1   
    54    47    52 1   
    55    49    53 1   
    56    50    53 1   
@<TRIPOS>SUBSTRUCTURE
     1 YTO         1 TEMP              0 ****  ****    0 ROOT
