@<TRIPOS>MOLECULE
YTO
   53    56     1     0     0
SMALL
abcg2


@<TRIPOS>ATOM
      1 N12        -22.8590   -11.0660    11.9490 na         1 YTO      -0.187700
      2 C13        -22.4210   -10.7340    10.7000 cc         1 YTO      -0.054300
      3 C24        -20.1450   -10.1310     3.8880 c3         1 YTO      -0.323100
      4 C31        -21.7630   -14.3060    11.0130 ca         1 YTO      -0.065000
      5 C30        -22.0840   -12.9420    11.0310 ca         1 YTO      -0.085800
      6 C29        -20.2750   -11.1270     8.3790 ca         1 YTO      -0.108000
      7 C32        -22.0600   -15.0730    12.1200 ca         1 YTO      -0.160000
      8 C33        -22.6560   -14.5040    13.2570 ca         1 YTO      -0.106000
      9 C27        -19.6490   -11.3200     7.1680 ca         1 YTO       0.165000
     10 O25        -21.4800   -12.3880     3.6290 o          1 YTO      -0.536000
     11 C14        -22.6260    -9.3100    10.2300 c          1 YTO       0.723200
     12 C20        -20.9510   -13.2430     6.7280 ca         1 YTO      -0.068000
     13 C19        -21.6070   -13.0660     7.9340 ca         1 YTO      -0.135000
     14 C21        -19.9480   -12.3710     6.3130 ca         1 YTO      -0.162300
     15 C18        -21.2780   -12.0070     8.7840 ca         1 YTO       0.095200
     16 C17        -21.9230   -11.8680    10.0910 cd         1 YTO      -0.155400
     17 C11        -22.6730   -12.3910    12.1910 ca         1 YTO      -0.052200
     18 C10        -22.9560   -13.1570    13.3290 ca         1 YTO      -0.146300
     19 C01        -22.4200   -11.7870    15.3570 c3         1 YTO      -0.085100
     20 C02        -23.4970   -12.5460    14.5980 c3         1 YTO       0.219600
     21 C05        -26.3990   -13.1400    14.7170 cc         1 YTO      -0.213300
     22 C06        -26.8050   -14.4440    14.5990 cd         1 YTO       0.195900
     23 F28        -18.6960   -10.4440     6.8000 f          1 YTO      -0.199000
     24 N07        -27.3910   -14.8190    15.7560 nd         1 YTO      -0.371000
     25 N08        -27.3630   -13.8280    16.5800 nc         1 YTO      -0.217800
     26 N09        -26.7760   -12.8190    15.9670 na         1 YTO       0.001800
     27 O03        -24.5540   -11.6340    14.3440 os         1 YTO      -0.458000
     28 O15        -23.0490    -8.5290    11.1050 o          1 YTO      -0.697000
     29 O16        -22.3770    -9.0650     9.0390 o          1 YTO      -0.697000
     30 O26        -19.2970   -12.1520     2.4160 o          1 YTO      -0.536000
     31 S23        -20.1080   -11.8880     3.6050 s6         1 YTO       1.063000
     32 H121       -23.2980   -10.3960    12.5610 hn         1 YTO       0.379000
     33 H243       -20.7190    -9.9080     4.7840 h1         1 YTO       0.106700
     34 H242       -19.1290    -9.7530     3.9750 h1         1 YTO       0.106700
     35 H241       -20.6330    -9.6860     3.0210 h1         1 YTO       0.106700
     36 H311       -21.2940   -14.7560    10.1480 ha         1 YTO       0.108000
     37 H291       -19.9730   -10.3030     9.0100 ha         1 YTO       0.153000
     38 H321       -21.8310   -16.1310    12.1180 ha         1 YTO       0.097000
     39 H331       -22.8750   -15.1350    14.1100 ha         1 YTO       0.095000
     40 H201       -21.2180   -14.0790     6.0940 ha         1 YTO       0.110000
     41 H191       -22.3920   -13.7560     8.2130 ha         1 YTO       0.119000
     42 H013       -22.8220   -11.3580    16.2760 hc         1 YTO       0.045033
     43 H012       -21.6130   -12.4660    15.6280 hc         1 YTO       0.045033
     44 H011       -21.9950   -10.9810    14.7570 hc         1 YTO       0.045033
     45 H021       -23.8540   -13.3650    15.2390 h1         1 YTO       0.035700
     46 H041       -25.4930   -12.7510    12.8540 h1         1 YTO       0.077700
     47 H042       -26.3660   -11.3760    13.5210 h1         1 YTO       0.077700
     48 H061       -26.7050   -15.1100    13.7570 h4         1 YTO       0.051100
     49 H222       -19.1360   -13.6340     4.7820 h1         1 YTO       0.097700
     50 H221       -18.2250   -12.1390     5.0110 h1         1 YTO       0.097700
     51 H091       -26.6450   -11.9420    16.4530 hn         1 YTO       0.380000
     52 C04        -25.7080   -12.2080    13.7800 c3         1 YTO       0.223900
     53 C22        -19.2250   -12.5730     5.0240 c3         1 YTO      -0.201100
@<TRIPOS>BOND
     1     1     2 1   
     2     1    17 1   
     3     1    32 1   
     4     2    11 1   
     5     2    16 2   
     6     3    31 1   
     7     3    33 1   
     8     3    34 1   
     9     3    35 1   
    10     4     5 ar  
    11     4     7 ar  
    12     4    36 1   
    13     5    16 1   
    14     5    17 ar  
    15     6     9 ar  
    16     6    15 ar  
    17     6    37 1   
    18     7     8 ar  
    19     7    38 1   
    20     8    18 ar  
    21     8    39 1   
    22     9    14 ar  
    23     9    23 1   
    24    10    31 2   
    25    11    28 1   
    26    11    29 1   
    27    12    13 ar  
    28    12    14 ar  
    29    12    40 1   
    30    13    15 ar  
    31    13    41 1   
    32    14    53 1   
    33    15    16 1   
    34    17    18 ar  
    35    18    20 1   
    36    19    20 1   
    37    19    42 1   
    38    19    43 1   
    39    19    44 1   
    40    20    27 1   
    41    20    45 1   
    42    21    22 2   
    43    21    26 1   
    44    21    52 1   
    45    22    24 1   
    46    22    48 1   
    47    24    25 2   
    48    25    26 1   
    49    26    51 1   
    50    27    52 1   
    51    30    31 2   
    52    31    53 1   
    53    46    52 1   
    54    47    52 1   
    55    49    53 1   
    56    50    53 1   
@<TRIPOS>SUBSTRUCTURE
     1 YTO         1 TEMP              0 ****  ****    0 ROOT
