@<TRIPOS>MOLECULE
YTP
   21    21     1     0     0
SMALL
bcc


@<TRIPOS>ATOM
      1 C1          -1.8450    -0.4370     0.1060 ca         1 YTP       0.166100
      2 C2          -1.0030    -1.5480     0.1670 ca         1 YTP      -0.241000
      3 C3           0.3670    -1.3820     0.1370 ca         1 YTP      -0.031000
      4 C4           0.9260    -0.1080     0.0460 ca         1 YTP      -0.216600
      5 C5           0.0640     0.9910    -0.0150 ca         1 YTP      -0.055000
      6 C6          -1.3140     0.8570     0.0130 ca         1 YTP      -0.124300
      7 C7           2.3990     0.0420     0.0200 c          1 YTP       0.589700
      8 O8           3.1260    -0.9320     0.0710 o          1 YTP      -0.533100
      9 C9           2.9730     1.4310    -0.0670 c3         1 YTP      -0.195100
     10 C10         -2.2220     2.0490    -0.0540 c3         1 YTP      -0.032800
     11 O11         -3.1800    -0.5510     0.1350 oh         1 YTP      -0.489100
     12 H2          -1.4270    -2.5430     0.2400 ha         1 YTP       0.135000
     13 H3           1.0060    -2.2530     0.1860 ha         1 YTP       0.152000
     14 H5           0.4670     1.9940    -0.0880 ha         1 YTP       0.132000
     15 H9           2.6520     2.0380     0.7810 hc         1 YTP       0.060033
     16 H9A          4.0600     1.3920    -0.0780 hc         1 YTP       0.060033
     17 H9B          2.6310     1.9380    -0.9700 hc         1 YTP       0.060033
     18 H10         -2.8690     2.1120     0.8220 hc         1 YTP       0.044367
     19 H10A        -1.6450     2.9710    -0.1070 hc         1 YTP       0.044367
     20 H10B        -2.8710     2.0130    -0.9300 hc         1 YTP       0.044367
     21 HO11        -3.4430    -1.4760     0.2050 ho         1 YTP       0.429000
@<TRIPOS>BOND
     1     1     2 ar  
     2     1     6 ar  
     3     1    11 1   
     4     2     3 ar  
     5     2    12 1   
     6     3     4 ar  
     7     3    13 1   
     8     4     5 ar  
     9     4     7 1   
    10     5     6 ar  
    11     5    14 1   
    12     6    10 1   
    13     7     8 2   
    14     7     9 1   
    15     9    15 1   
    16     9    16 1   
    17     9    17 1   
    18    10    18 1   
    19    10    19 1   
    20    10    20 1   
    21    11    21 1   
@<TRIPOS>SUBSTRUCTURE
     1 YTP         1 TEMP              0 ****  ****    0 ROOT
