@<TRIPOS>MOLECULE
YTP
   21    21     1     0     0
SMALL
No Charge or Current Charge


@<TRIPOS>ATOM
      1 C1          -1.8870    -0.4390     0.1050 ca         1 YTP       0.166100
      2 C2          -1.0440    -1.5560     0.1670 ca         1 YTP      -0.223000
      3 C3           0.3510    -1.3940     0.1410 ca         1 YTP      -0.013000
      4 C4           0.9220    -0.1050     0.0510 ca         1 YTP      -0.216600
      5 C5           0.0610     1.0170    -0.0110 ca         1 YTP      -0.037000
      6 C6          -1.3400     0.8570     0.0160 ca         1 YTP      -0.124300
      7 C7           2.4310     0.0430     0.0250 c          1 YTP       0.589700
      8 O8           3.1590    -0.9420     0.0800 o          1 YTP      -0.533100
      9 C9           3.0580     1.4360    -0.0720 c3         1 YTP      -0.195100
     10 C10         -2.2440     2.0850    -0.0530 c3         1 YTP      -0.032800
     11 O11         -3.2390    -0.6220     0.1330 oh         1 YTP      -0.528100
     12 H2          -1.4610    -2.5580     0.2370 ha         1 YTP       0.117000
     13 H3           0.9850    -2.2780     0.1910 ha         1 YTP       0.134000
     14 H5           0.4660     2.0230    -0.0800 ha         1 YTP       0.114000
     15 H9           2.6830     2.0550     0.7500 hc         1 YTP       0.060033
     16 H9A          4.1530     1.4050    -0.0830 hc         1 YTP       0.060033
     17 H9B          2.6630     1.9450    -0.9590 hc         1 YTP       0.060033
     18 H10         -2.8800     2.1550     0.8380 hc         1 YTP       0.044367
     19 H10A        -1.6690     3.0160    -0.1200 hc         1 YTP       0.044367
     20 H10B        -2.9000     2.0410    -0.9310 hc         1 YTP       0.044367
     21 HO11        -3.4170    -1.5840     0.1970 ho         1 YTP       0.468000
@<TRIPOS>BOND
     1     1     2 ar  
     2     1     6 ar  
     3     1    11 1   
     4     2     3 ar  
     5     2    12 1   
     6     3     4 ar  
     7     3    13 1   
     8     4     5 ar  
     9     4     7 1   
    10     5     6 ar  
    11     5    14 1   
    12     6    10 1   
    13     7     8 2   
    14     7     9 1   
    15     9    15 1   
    16     9    16 1   
    17     9    17 1   
    18    10    18 1   
    19    10    19 1   
    20    10    20 1   
    21    11    21 1   
@<TRIPOS>SUBSTRUCTURE
     1 YTP         1 TEMP              0 ****  ****    0 ROOT
