@<TRIPOS>MOLECULE
YTR
   32    33     1     0     0
SMALL
No Charge or Current Charge


@<TRIPOS>ATOM
      1 C1          -0.3690    -2.1330    -0.0070 ca         1 YTR      -0.024000
      2 C2           0.6690    -1.1760    -0.0370 ca         1 YTR      -0.159800
      3 C3           0.3480     0.2010    -0.1900 ca         1 YTR       0.130600
      4 C4          -1.0280     0.5880    -0.1000 ca         1 YTR       0.000100
      5 C5          -2.0530    -0.3890    -0.0860 ca         1 YTR       0.169100
      6 C6          -1.7110    -1.7500    -0.0610 ca         1 YTR      -0.226000
      7 C7           2.0580    -1.6380     0.1200 cc         1 YTR       0.028600
      8 C8           2.9980    -0.6450     0.2760 cd         1 YTR      -0.305200
      9 C9           2.7520     0.7950     0.1640 c          1 YTR       0.559200
     10 N10          1.4320     1.1650    -0.1530 n          1 YTR      -0.283000
     11 O11          3.6590     1.6060     0.3010 o          1 YTR      -0.551000
     12 C12          1.2320     2.5480    -0.6630 c3         1 YTR       0.084300
     13 C13          2.4490    -3.0960     0.1790 c3         1 YTR      -0.061900
     14 O14         -1.3900     1.9220    -0.0360 os         1 YTR      -0.340100
     15 C15         -1.9670     2.4530     1.1710 c3         1 YTR       0.142900
     16 O16         -3.3760     0.0210    -0.1050 os         1 YTR      -0.320100
     17 C17         -4.4770    -0.9040    -0.0910 c3         1 YTR       0.144900
     18 H1          -0.1490    -3.1950     0.0740 ha         1 YTR       0.117000
     19 H6          -2.4700    -2.5270    -0.0450 ha         1 YTR       0.124000
     20 H8           4.0380    -0.8870     0.4600 ha         1 YTR       0.207000
     21 H12          0.8800     3.1960     0.1490 h1         1 YTR       0.056700
     22 H12A         2.1650     2.9620    -1.0650 h1         1 YTR       0.056700
     23 H12B         0.5010     2.5460    -1.4800 h1         1 YTR       0.056700
     24 H13          2.0840    -3.6360    -0.7020 hc         1 YTR       0.050033
     25 H13A         3.5380    -3.2200     0.2110 hc         1 YTR       0.050033
     26 H13B         2.0360    -3.5760     1.0740 hc         1 YTR       0.050033
     27 H15         -2.9170     1.9630     1.4120 h1         1 YTR       0.036700
     28 H15A        -1.2820     2.3140     2.0170 h1         1 YTR       0.036700
     29 H15B        -2.1580     3.5280     1.0590 h1         1 YTR       0.036700
     30 H17         -4.4450    -1.5620    -0.9700 h1         1 YTR       0.044367
     31 H17A        -4.4560    -1.5230     0.8150 h1         1 YTR       0.044367
     32 H17B        -5.4290    -0.3610    -0.1100 h1         1 YTR       0.044367
@<TRIPOS>BOND
     1     1     2 ar  
     2     1     6 ar  
     3     1    18 1   
     4     2     3 ar  
     5     2     7 1   
     6     3     4 ar  
     7     3    10 1   
     8     4     5 ar  
     9     4    14 1   
    10     5     6 ar  
    11     5    16 1   
    12     6    19 1   
    13     7     8 2   
    14     7    13 1   
    15     8     9 1   
    16     8    20 1   
    17     9    10 1   
    18     9    11 2   
    19    10    12 1   
    20    12    21 1   
    21    12    22 1   
    22    12    23 1   
    23    13    24 1   
    24    13    25 1   
    25    13    26 1   
    26    14    15 1   
    27    15    27 1   
    28    15    28 1   
    29    15    29 1   
    30    16    17 1   
    31    17    30 1   
    32    17    31 1   
    33    17    32 1   
@<TRIPOS>SUBSTRUCTURE
     1 YTR         1 TEMP              0 ****  ****    0 ROOT
