@<TRIPOS>MOLECULE
YTR
   32    33     1     0     0
SMALL
bcc


@<TRIPOS>ATOM
      1 C1          -0.4040    -2.1190    -0.0450 ca         1 YTR      -0.042000
      2 C2           0.6160    -1.1680    -0.0090 ca         1 YTR      -0.159800
      3 C3           0.2860     0.2050    -0.1020 ca         1 YTR       0.130600
      4 C4          -1.0720     0.5670    -0.1070 ca         1 YTR       0.000100
      5 C5          -2.0700    -0.4140    -0.1550 ca         1 YTR       0.169100
      6 C6          -1.7300    -1.7660    -0.1450 ca         1 YTR      -0.244000
      7 C7           1.9930    -1.5500     0.1810 cc         1 YTR       0.028600
      8 C8           2.9240    -0.5820     0.2900 cd         1 YTR      -0.255200
      9 C9           2.6200     0.8200     0.1180 c          1 YTR       0.701700
     10 N10          1.3060     1.1460    -0.1680 n          1 YTR      -0.350000
     11 O11          3.4860     1.6870     0.1690 o          1 YTR      -0.626500
     12 C12          1.0870     2.4930    -0.6930 c3         1 YTR       0.084300
     13 C13          2.3670    -2.9930     0.2950 c3         1 YTR      -0.061900
     14 O14         -1.4760     1.8630    -0.0320 os         1 YTR      -0.316900
     15 C15         -1.6690     2.3240     1.3000 c3         1 YTR       0.119700
     16 O16         -3.3260     0.0480    -0.1850 os         1 YTR      -0.296900
     17 C17         -4.3920    -0.8840    -0.2000 c3         1 YTR       0.121700
     18 H1          -0.1550    -3.1700     0.0110 ha         1 YTR       0.135000
     19 H6          -2.4830    -2.5400    -0.1810 ha         1 YTR       0.142000
     20 H8           3.9640    -0.8240     0.4690 ha         1 YTR       0.157000
     21 H12          0.7920     3.2030     0.0780 h1         1 YTR       0.056700
     22 H12A         2.0180     2.8410    -1.1290 h1         1 YTR       0.056700
     23 H12B         0.3350     2.4710    -1.4740 h1         1 YTR       0.056700
     24 H13          2.0680    -3.5500    -0.5950 hc         1 YTR       0.050033
     25 H13A         3.4410    -3.1070     0.4200 hc         1 YTR       0.050033
     26 H13B         1.8750    -3.4630     1.1480 hc         1 YTR       0.050033
     27 H15         -2.4590     1.7680     1.8090 h1         1 YTR       0.036700
     28 H15A        -0.7520     2.2480     1.8910 h1         1 YTR       0.036700
     29 H15B        -1.9590     3.3710     1.2370 h1         1 YTR       0.036700
     30 H17         -4.3670    -1.5190    -1.0880 h1         1 YTR       0.044367
     31 H17A        -4.3930    -1.5160     0.6910 h1         1 YTR       0.044367
     32 H17B        -5.3080    -0.2990    -0.2150 h1         1 YTR       0.044367
@<TRIPOS>BOND
     1     1     2 ar  
     2     1     6 ar  
     3     1    18 1   
     4     2     3 ar  
     5     2     7 1   
     6     3     4 ar  
     7     3    10 1   
     8     4     5 ar  
     9     4    14 1   
    10     5     6 ar  
    11     5    16 1   
    12     6    19 1   
    13     7     8 2   
    14     7    13 1   
    15     8     9 1   
    16     8    20 1   
    17     9    10 1   
    18     9    11 2   
    19    10    12 1   
    20    12    21 1   
    21    12    22 1   
    22    12    23 1   
    23    13    24 1   
    24    13    25 1   
    25    13    26 1   
    26    14    15 1   
    27    15    27 1   
    28    15    28 1   
    29    15    29 1   
    30    16    17 1   
    31    17    30 1   
    32    17    31 1   
    33    17    32 1   
@<TRIPOS>SUBSTRUCTURE
     1 YTR         1 TEMP              0 ****  ****    0 ROOT
