@<TRIPOS>MOLECULE
YTS
   61    65     1     0     0
SMALL
No Charge or Current Charge


@<TRIPOS>ATOM
      1 C1           7.5480    -1.7820    21.5160 c          1 YTS       0.563200
      2 C2           8.2680    -2.0030    19.1360 ca         1 YTS      -0.043400
      3 C3           7.0600    -2.4980    18.5770 ca         1 YTS       0.368900
      4 C4           8.1040    -3.1810    16.6230 ca         1 YTS       0.349900
      5 C5           9.3390    -2.6810    17.0650 ca         1 YTS      -0.160000
      6 C6           9.4240    -2.0680    18.3250 ca         1 YTS      -0.057000
      7 C7           9.0990    -0.1610    20.5410 cc         1 YTS       0.022600
      8 C8           9.2940     0.5270    21.7330 cd         1 YTS      -0.144000
      9 C9          10.2080     1.6850    21.7540 cd         1 YTS      -0.210200
     10 C11         10.2580     2.4070    22.9420 cc         1 YTS       0.005600
     11 C12         11.8940     3.9880    22.0420 c          1 YTS       0.616000
     12 C13          8.5610     0.0640    22.8940 cd         1 YTS      -0.071000
     13 C14          7.7250    -1.0280    22.7750 cc         1 YTS      -0.169400
     14 C15          7.0470    -1.4170    24.0120 ca         1 YTS       0.016200
     15 C16          6.1860    -0.5160    24.6650 ca         1 YTS      -0.141000
     16 C17          5.5400    -0.8900    25.8530 ca         1 YTS       0.153000
     17 C22          6.5230    -8.7990    27.1970 c6         1 YTS       0.074800
     18 C23          5.0590    -6.9010    26.7020 c6         1 YTS       0.146800
     19 C24          3.8770    -7.8550    26.3590 c6         1 YTS       0.114000
     20 C25          5.3200    -9.7890    27.1180 c          1 YTS       0.571000
     21 C10         11.0910     2.1660    20.6240 c          1 YTS       0.592200
     22 C18          5.7480    -2.1650    26.3980 ca         1 YTS      -0.142000
     23 C19          6.6020    -3.0740    25.7570 ca         1 YTS       0.155100
     24 C20          7.6040    -5.3340    25.7460 c3         1 YTS       0.158600
     25 C21          7.5540    -6.6100    26.6290 c3         1 YTS       0.170800
     26 C26          7.2530    -2.6970    24.5620 ca         1 YTS      -0.169000
     27 N1           8.2680    -1.2840    20.4030 n          1 YTS      -0.189200
     28 N2           6.9740    -3.0840    17.3570 nb         1 YTS      -0.654000
     29 N3          11.8350     3.2730    20.8990 ns         1 YTS      -0.469500
     30 N4          11.0920     3.5140    23.0290 ns         1 YTS      -0.514600
     31 N5           6.3880    -7.5200    26.4170 n3         1 YTS      -0.715600
     32 N6           4.0980    -9.2540    26.7770 ns         1 YTS      -0.503900
     33 O1           6.8430    -2.7830    21.4500 o          1 YTS      -0.529000
     34 O2          11.1960     1.6460    19.5260 o          1 YTS      -0.526000
     35 O3          12.6010     4.9660    22.1790 o          1 YTS      -0.541000
     36 O4           6.7690    -4.3150    26.3350 os         1 YTS      -0.356100
     37 Cl1          4.4650     0.2430    26.6600 cl         1 YTS      -0.202000
     38 H1           6.1140    -2.3970    19.1070 h4         1 YTS       0.036100
     39 H2           8.0140    -3.6590    15.6490 h4         1 YTS       0.025100
     40 H3          10.2160    -2.7710    16.4300 ha         1 YTS       0.130000
     41 H4          10.3840    -1.6900    18.6710 ha         1 YTS       0.128000
     42 H5           9.5160     0.1170    19.5870 h4         1 YTS       0.223000
     43 H7           9.7050     2.2480    23.8600 h4         1 YTS       0.210000
     44 H9           8.6540     0.5260    23.8690 ha         1 YTS       0.186000
     45 H10          6.0130     0.4730    24.2490 ha         1 YTS       0.130000
     46 H16          7.4120    -9.3580    26.8700 h1         1 YTS       0.062200
     47 H17          6.6500    -8.5770    28.2670 h1         1 YTS       0.062200
     48 H18          4.9170    -5.9770    26.1250 h1         1 YTS       0.052700
     49 H19          4.9930    -6.6280    27.7660 h1         1 YTS       0.052700
     50 H20          3.7280    -7.8540    25.2700 h1         1 YTS       0.047700
     51 H21          2.9530    -7.4820    26.8210 h1         1 YTS       0.047700
     52 H11          5.2450    -2.4510    27.3170 ha         1 YTS       0.141000
     53 H12          7.2760    -5.5820    24.7290 h1         1 YTS       0.052200
     54 H13          8.6430    -4.9830    25.6990 h1         1 YTS       0.052200
     55 H14          8.4740    -7.1710    26.4190 h1         1 YTS       0.047200
     56 H15          7.6120    -6.3050    27.6830 h1         1 YTS       0.047200
     57 H23          7.9230    -3.3810    24.0500 ha         1 YTS       0.135000
     58 H6          12.4250     3.5990    20.1510 hn         1 YTS       0.347500
     59 H8          11.1370     4.0540    23.8890 hn         1 YTS       0.466000
     60 H22          3.3210    -9.9030    26.7370 hn         1 YTS       0.317500
     61 O5           5.4310   -10.9840    27.3540 o          1 YTS      -0.573000
@<TRIPOS>BOND
     1     1    13 1   
     2     1    27 1   
     3     1    33 2   
     4     2     3 ar  
     5     2     6 ar  
     6     2    27 1   
     7     3    28 ar  
     8     3    38 1   
     9     4     5 ar  
    10     4    28 ar  
    11     4    39 1   
    12     5     6 ar  
    13     5    40 1   
    14     6    41 1   
    15     7     8 2   
    16     7    27 1   
    17     7    42 1   
    18     8     9 1   
    19     8    12 1   
    20     9    10 2   
    21     9    21 1   
    22    10    30 1   
    23    10    43 1   
    24    11    29 1   
    25    11    30 1   
    26    11    35 2   
    27    12    13 2   
    28    12    44 1   
    29    13    14 1   
    30    14    15 ar  
    31    14    26 ar  
    32    15    16 ar  
    33    15    45 1   
    34    16    22 ar  
    35    16    37 1   
    36    17    20 1   
    37    17    31 1   
    38    17    46 1   
    39    17    47 1   
    40    18    19 1   
    41    18    31 1   
    42    18    48 1   
    43    18    49 1   
    44    19    32 1   
    45    19    50 1   
    46    19    51 1   
    47    20    32 1   
    48    20    61 2   
    49    21    29 1   
    50    21    34 2   
    51    22    23 ar  
    52    22    52 1   
    53    23    26 ar  
    54    23    36 1   
    55    24    25 1   
    56    24    36 1   
    57    24    53 1   
    58    24    54 1   
    59    25    31 1   
    60    25    55 1   
    61    25    56 1   
    62    26    57 1   
    63    29    58 1   
    64    30    59 1   
    65    32    60 1   
@<TRIPOS>SUBSTRUCTURE
     1 YTS         1 TEMP              0 ****  ****    0 ROOT
