@<TRIPOS>MOLECULE
YTS
   61    65     1     0     0
SMALL
abcg2


@<TRIPOS>ATOM
      1 C1           8.0200    -1.9490    21.8290 c          1 YTS       0.563200
      2 C2           8.6050    -2.2510    19.5150 ca         1 YTS      -0.043400
      3 C3           7.5010    -2.1830    18.6790 ca         1 YTS       0.368900
      4 C4           8.4060    -3.7040    17.2520 ca         1 YTS       0.349900
      5 C5           9.5500    -3.8360    18.0240 ca         1 YTS      -0.160000
      6 C6           9.6530    -3.0930    19.1890 ca         1 YTS      -0.057000
      7 C7           9.2750    -0.2410    20.6240 cc         1 YTS       0.022600
      8 C8           9.3210     0.5950    21.6970 cd         1 YTS      -0.144000
      9 C9           9.9790     1.9060    21.6340 cd         1 YTS      -0.210200
     10 C11         10.7400     2.3710    22.6490 cc         1 YTS       0.005600
     11 C12         11.1570     4.4970    21.6120 c          1 YTS       0.616000
     12 C13          8.6890     0.1440    22.8830 cd         1 YTS      -0.071000
     13 C14          8.0660    -1.0650    22.9780 cc         1 YTS      -0.169400
     14 C15          7.3770    -1.4670    24.2200 ca         1 YTS       0.016200
     15 C16          6.6110    -0.5290    24.9070 ca         1 YTS      -0.141000
     16 C17          5.9920    -0.9040    26.0890 ca         1 YTS       0.153000
     17 C22          6.2640    -8.7840    26.5440 c6         1 YTS       0.074800
     18 C23          4.9890    -6.8050    26.7750 c6         1 YTS       0.146800
     19 C24          3.7660    -7.4350    26.1490 c6         1 YTS       0.114000
     20 C25          4.9950    -9.5790    26.3200 c          1 YTS       0.571000
     21 C10          9.7740     2.7770    20.4830 c          1 YTS       0.592200
     22 C18          6.0910    -2.1820    26.5980 ca         1 YTS      -0.142000
     23 C19          6.8530    -3.1220    25.8990 ca         1 YTS       0.155100
     24 C20          7.5960    -5.3830    25.7570 c3         1 YTS       0.158600
     25 C21          7.4140    -6.7010    26.4790 c3         1 YTS       0.170800
     26 C26          7.5000    -2.7640    24.7220 ca         1 YTS      -0.169000
     27 N1           8.6490    -1.4430    20.6910 n          1 YTS      -0.189200
     28 N2           7.4010    -2.8950    17.5670 nb         1 YTS      -0.654000
     29 N3          10.3960     4.0110    20.5790 ns         1 YTS      -0.469500
     30 N4          11.3000     3.6070    22.6440 ns         1 YTS      -0.514600
     31 N5           6.1720    -7.3880    26.1740 n3         1 YTS      -0.715600
     32 N6           3.8610    -8.8790    26.1840 ns         1 YTS      -0.503900
     33 O1           7.4800    -3.0440    21.7840 o          1 YTS      -0.529000
     34 O2           9.1180     2.5000    19.4980 o          1 YTS      -0.526000
     35 O3          11.6530     5.6020    21.6100 o          1 YTS      -0.541000
     36 O4           6.9020    -4.3500    26.4430 os         1 YTS      -0.356100
     37 CL1          5.0430     0.2690    26.9440 cl         1 YTS      -0.202000
     38 H1           6.6750    -1.5220    18.9240 h4         1 YTS       0.036100
     39 H2           8.2990    -4.2750    16.3370 h4         1 YTS       0.025100
     40 H3          10.3410    -4.5080    17.7200 ha         1 YTS       0.130000
     41 H4          10.5240    -3.1630    19.8290 ha         1 YTS       0.128000
     42 H5           9.7320    -0.0080    19.6740 h4         1 YTS       0.223000
     43 H7          10.9480     1.7810    23.5300 h4         1 YTS       0.210000
     44 H9           8.7010     0.7930    23.7520 ha         1 YTS       0.186000
     45 H10          6.4810     0.4720    24.5170 ha         1 YTS       0.130000
     46 H16          7.0550    -9.2670    25.9650 h1         1 YTS       0.062200
     47 H17          6.5300    -8.9190    27.6080 h1         1 YTS       0.062200
     48 H18          4.9500    -5.7350    26.5830 h1         1 YTS       0.052700
     49 H19          4.9740    -6.9410    27.8700 h1         1 YTS       0.052700
     50 H20          3.6600    -7.0870    25.1170 h1         1 YTS       0.047700
     51 H21          2.8720    -7.1270    26.6920 h1         1 YTS       0.047700
     52 H11          5.5900    -2.4630    27.5150 ha         1 YTS       0.141000
     53 H12          7.2340    -5.4800    24.7280 h1         1 YTS       0.052200
     54 H13          8.6640    -5.1430    25.7180 h1         1 YTS       0.052200
     55 H14          8.2300    -7.3430    26.1380 h1         1 YTS       0.047200
     56 H15          7.5680    -6.5620    27.5610 h1         1 YTS       0.047200
     57 H23          8.1110    -3.4780    24.1920 ha         1 YTS       0.135000
     58 H6          10.2660     4.6410    19.7970 hn         1 YTS       0.347500
     59 H8          11.8600     3.9000    23.4320 hn         1 YTS       0.466000
     60 H22          3.0190    -9.4100    26.0140 hn         1 YTS       0.317500
     61 O5           5.0280   -10.8030    26.3110 o          1 YTS      -0.573000
@<TRIPOS>BOND
     1     1    13 1   
     2     1    27 1   
     3     1    33 2   
     4     2     3 ar  
     5     2     6 ar  
     6     2    27 1   
     7     3    28 ar  
     8     3    38 1   
     9     4     5 ar  
    10     4    28 ar  
    11     4    39 1   
    12     5     6 ar  
    13     5    40 1   
    14     6    41 1   
    15     7     8 2   
    16     7    27 1   
    17     7    42 1   
    18     8     9 1   
    19     8    12 1   
    20     9    10 2   
    21     9    21 1   
    22    10    30 1   
    23    10    43 1   
    24    11    29 1   
    25    11    30 1   
    26    11    35 2   
    27    12    13 2   
    28    12    44 1   
    29    13    14 1   
    30    14    15 ar  
    31    14    26 ar  
    32    15    16 ar  
    33    15    45 1   
    34    16    22 ar  
    35    16    37 1   
    36    17    20 1   
    37    17    31 1   
    38    17    46 1   
    39    17    47 1   
    40    18    19 1   
    41    18    31 1   
    42    18    48 1   
    43    18    49 1   
    44    19    32 1   
    45    19    50 1   
    46    19    51 1   
    47    20    32 1   
    48    20    61 2   
    49    21    29 1   
    50    21    34 2   
    51    22    23 ar  
    52    22    52 1   
    53    23    26 ar  
    54    23    36 1   
    55    24    25 1   
    56    24    36 1   
    57    24    53 1   
    58    24    54 1   
    59    25    31 1   
    60    25    55 1   
    61    25    56 1   
    62    26    57 1   
    63    29    58 1   
    64    30    59 1   
    65    32    60 1   
@<TRIPOS>SUBSTRUCTURE
     1 YTS         1 TEMP              0 ****  ****    0 ROOT
