@<TRIPOS>MOLECULE
YTT
   42    44     1     0     0
SMALL
abcg2


@<TRIPOS>ATOM
      1 OB          -0.3960    -2.7530    -1.4110 o          1 YTT      -0.555000
      2 CB          -0.2330    -1.5450    -1.3480 c          1 YTT       0.562000
      3 CAB          1.1510    -0.9720    -1.1250 c6         1 YTT       0.035700
      4 CBB          1.5740    -1.2070     0.3400 c3         1 YTT      -0.039100
      5 CGB          2.9380    -0.6490     0.6270 ca         1 YTT      -0.134300
      6 CD3          3.0960     0.6240     1.1710 ca         1 YTT      -0.065500
      7 CE3          4.3520     1.1620     1.4030 ca         1 YTT      -0.174250
      8 CZB          5.4910     0.4260     1.0860 ca         1 YTT       0.144100
      9 OHB          6.6930     0.9880     1.3280 oh         1 YTT      -0.531100
     10 CE4          5.3510    -0.8480     0.5410 ca         1 YTT      -0.174250
     11 CD4          4.0860    -1.3700     0.3170 ca         1 YTT      -0.065500
     12 NB           1.2470     0.4140    -1.5200 ns         1 YTT      -0.495400
     13 NA          -1.2330    -0.6600    -1.4440 ns         1 YTT      -0.495400
     14 CAA         -1.1360     0.7690    -1.2460 c6         1 YTT       0.035700
     15 CA           0.2490     1.3040    -1.5450 c          1 YTT       0.562000
     16 OA           0.4120     2.4920    -1.7750 o          1 YTT      -0.555000
     17 CBA         -1.5640     1.2010     0.1700 c3         1 YTT      -0.039100
     18 CGA         -2.9620     0.7600     0.4910 ca         1 YTT      -0.134300
     19 CD2         -3.2070    -0.4160     1.1920 ca         1 YTT      -0.065500
     20 CE2         -4.5000    -0.8410     1.4640 ca         1 YTT      -0.174250
     21 CZA         -5.5850    -0.0860     1.0280 ca         1 YTT       0.144100
     22 OHA         -6.8630    -0.4420     1.2660 oh         1 YTT      -0.531100
     23 CE1         -5.3580     1.0920     0.3190 ca         1 YTT      -0.174250
     24 CD1         -4.0610     1.5010     0.0580 ca         1 YTT      -0.065500
     25 HAB          1.8280    -1.5410    -1.7660 h1         1 YTT       0.087200
     26 HBB          0.8370    -0.7570     1.0110 hc         1 YTT       0.063950
     27 HBBA         1.5560    -2.2820     0.5240 hc         1 YTT       0.063950
     28 HD3          2.2210     1.2090     1.4300 ha         1 YTT       0.115750
     29 HE3          4.4520     2.1510     1.8340 ha         1 YTT       0.124500
     30 HOHB         7.4010     0.3760     1.1010 ho         1 YTT       0.466000
     31 HE4          6.2290    -1.4360     0.2950 ha         1 YTT       0.124500
     32 HD4          3.9990    -2.3660    -0.1040 ha         1 YTT       0.115750
     33 HNB          2.1770     0.7710    -1.6920 hn         1 YTT       0.330000
     34 HNA         -2.1620    -1.0380    -1.5660 hn         1 YTT       0.330000
     35 HAA         -1.8100     1.2430    -1.9620 h1         1 YTT       0.087200
     36 HBA         -0.8640     0.7930     0.9040 hc         1 YTT       0.063950
     37 HBAA        -1.4880     2.2890     0.2270 hc         1 YTT       0.063950
     38 HD2         -2.3740    -1.0140     1.5440 ha         1 YTT       0.115750
     39 HE2         -4.6600    -1.7590     2.0170 ha         1 YTT       0.124500
     40 HOHA        -6.8940    -1.2640     1.7680 ho         1 YTT       0.466000
     41 HE1         -6.1980     1.6880    -0.0180 ha         1 YTT       0.124500
     42 HD1         -3.9030     2.4220    -0.4910 ha         1 YTT       0.115750
@<TRIPOS>BOND
     1     1     2 2   
     2     2     3 1   
     3     2    13 1   
     4     3     4 1   
     5     3    12 1   
     6     3    25 1   
     7     4     5 1   
     8     4    26 1   
     9     4    27 1   
    10     5     6 ar  
    11     5    11 ar  
    12     6     7 ar  
    13     6    28 1   
    14     7     8 ar  
    15     7    29 1   
    16     8     9 1   
    17     8    10 ar  
    18     9    30 1   
    19    10    11 ar  
    20    10    31 1   
    21    11    32 1   
    22    12    15 1   
    23    12    33 1   
    24    13    14 1   
    25    13    34 1   
    26    14    15 1   
    27    14    17 1   
    28    14    35 1   
    29    15    16 2   
    30    17    18 1   
    31    17    36 1   
    32    17    37 1   
    33    18    19 ar  
    34    18    24 ar  
    35    19    20 ar  
    36    19    38 1   
    37    20    21 ar  
    38    20    39 1   
    39    21    22 1   
    40    21    23 ar  
    41    22    40 1   
    42    23    24 ar  
    43    23    41 1   
    44    24    42 1   
@<TRIPOS>SUBSTRUCTURE
     1 YTT         1 TEMP              0 ****  ****    0 ROOT
