@<TRIPOS>MOLECULE
YTT
   42    44     1     0     0
SMALL
No Charge or Current Charge


@<TRIPOS>ATOM
      1 OB          -0.5390    -2.7210    -1.1570 o          1 YTT      -0.555000
      2 CB          -0.2900    -1.5260    -1.1860 c          1 YTT       0.562000
      3 CAB          1.1580    -0.9670    -1.0580 c6         1 YTT       0.035700
      4 CBB          1.6570    -1.1600     0.4030 c3         1 YTT      -0.039100
      5 CGB          3.0670    -0.6250     0.6340 ca         1 YTT      -0.134300
      6 CD3          3.2650     0.5950     1.3110 ca         1 YTT      -0.065500
      7 CE3          4.5670     1.0870     1.5130 ca         1 YTT      -0.174250
      8 CZB          5.6730     0.3650     1.0410 ca         1 YTT       0.144100
      9 OHB          6.9300     0.8510     1.2430 oh         1 YTT      -0.531100
     10 CE4          5.4820    -0.8500     0.3650 ca         1 YTT      -0.174250
     11 CD4          4.1820    -1.3450     0.1610 ca         1 YTT      -0.065500
     12 NB           1.2930     0.4520    -1.4740 ns         1 YTT      -0.495400
     13 NA          -1.2890    -0.6120    -1.4260 ns         1 YTT      -0.495400
     14 CAA         -1.1620     0.8550    -1.2280 c6         1 YTT       0.035700
     15 CA           0.2900     1.3900    -1.4030 c          1 YTT       0.562000
     16 OA           0.5410     2.5760    -1.5500 o          1 YTT      -0.555000
     17 CBA         -1.6980     1.2670     0.1720 c3         1 YTT      -0.039100
     18 CGA         -3.1150     0.7710     0.4450 ca         1 YTT      -0.134300
     19 CD2         -3.3330    -0.3310     1.2960 ca         1 YTT      -0.065500
     20 CE2         -4.6400    -0.7900     1.5380 ca         1 YTT      -0.174250
     21 CZA         -5.7330    -0.1500     0.9310 ca         1 YTT       0.144100
     22 OHA         -7.0020    -0.5890     1.1610 oh         1 YTT      -0.531100
     23 CE1         -5.5200     0.9460     0.0830 ca         1 YTT      -0.174250
     24 CD1         -4.2150     1.4080    -0.1610 ca         1 YTT      -0.065500
     25 HAB          1.7810    -1.5770    -1.7270 h1         1 YTT       0.087200
     26 HBB          0.9580    -0.6740     1.0950 hc         1 YTT       0.063950
     27 HBBA         1.6280    -2.2260     0.6610 hc         1 YTT       0.063950
     28 HD3          2.4130     1.1640     1.6770 ha         1 YTT       0.115750
     29 HE3          4.7160     2.0280     2.0350 ha         1 YTT       0.124500
     30 HOHB         7.5720     0.2220     0.8510 ho         1 YTT       0.466000
     31 HE4          6.3340    -1.4160    -0.0040 ha         1 YTT       0.124500
     32 HD4          4.0410    -2.2870    -0.3650 ha         1 YTT       0.115750
     33 HNB          2.2250     0.8190    -1.6280 hn         1 YTT       0.330000
     34 HNA         -2.2170    -1.0000    -1.5470 hn         1 YTT       0.330000
     35 HAA         -1.7660     1.3540    -1.9990 h1         1 YTT       0.087200
     36 HBA         -1.0190     0.8950     0.9480 hc         1 YTT       0.063950
     37 HBAA        -1.6740     2.3600     0.2650 hc         1 YTT       0.063950
     38 HD2         -2.4910    -0.8350     1.7670 ha         1 YTT       0.115750
     39 HE2         -4.7950    -1.6420     2.1960 ha         1 YTT       0.124500
     40 HOHA        -6.9590    -1.3550     1.7720 ho         1 YTT       0.466000
     41 HE1         -6.3670     1.4410    -0.3860 ha         1 YTT       0.124500
     42 HD1         -4.0600     2.2590    -0.8210 ha         1 YTT       0.115750
@<TRIPOS>BOND
     1     1     2 2   
     2     2     3 1   
     3     2    13 1   
     4     3     4 1   
     5     3    12 1   
     6     3    25 1   
     7     4     5 1   
     8     4    26 1   
     9     4    27 1   
    10     5     6 ar  
    11     5    11 ar  
    12     6     7 ar  
    13     6    28 1   
    14     7     8 ar  
    15     7    29 1   
    16     8     9 1   
    17     8    10 ar  
    18     9    30 1   
    19    10    11 ar  
    20    10    31 1   
    21    11    32 1   
    22    12    15 1   
    23    12    33 1   
    24    13    14 1   
    25    13    34 1   
    26    14    15 1   
    27    14    17 1   
    28    14    35 1   
    29    15    16 2   
    30    17    18 1   
    31    17    36 1   
    32    17    37 1   
    33    18    19 ar  
    34    18    24 ar  
    35    19    20 ar  
    36    19    38 1   
    37    20    21 ar  
    38    20    39 1   
    39    21    22 1   
    40    21    23 ar  
    41    22    40 1   
    42    23    24 ar  
    43    23    41 1   
    44    24    42 1   
@<TRIPOS>SUBSTRUCTURE
     1 YTT         1 TEMP              0 ****  ****    0 ROOT
