@<TRIPOS>MOLECULE
YTU
   42    45     1     0     0
SMALL
abcg2


@<TRIPOS>ATOM
      1 C10       -103.1210    70.9550   187.9190 ca         1 YTU      -0.106000
      2 C11       -102.1910    70.0000   187.5290 ca         1 YTU      -0.111500
      3 C15        -99.8940    69.6870   179.0210 cc         1 YTU       0.816900
      4 C18        -96.7520    70.9640   178.4680 c          1 YTU       0.558000
      5 C20        -96.5390    72.3760   178.2060 cc         1 YTU      -0.318200
      6 C21        -97.5580    73.2570   178.1900 cd         1 YTU       0.063800
      7 C23        -99.1090    71.5720   178.6570 cd         1 YTU       0.691400
      8 C25        -97.3470    74.7280   177.9340 c3         1 YTU       0.361200
      9 C1        -102.5690    70.6670   181.4480 ca         1 YTU      -0.092000
     10 C12       -102.0250    69.6940   186.1860 ca         1 YTU      -0.098500
     11 C2        -102.3330    69.3570   181.0470 ca         1 YTU      -0.124300
     12 C3        -102.2350    68.3730   182.0270 ca         1 YTU      -0.092000
     13 C4        -102.3740    68.6870   183.3690 ca         1 YTU      -0.104000
     14 C5        -102.6160    70.0020   183.7760 cp         1 YTU      -0.024000
     15 C6        -102.7090    70.9850   182.7920 ca         1 YTU      -0.104000
     16 C7        -102.7850    70.3340   185.2050 cp         1 YTU      -0.037000
     17 C8        -103.7150    71.2930   185.6110 ca         1 YTU      -0.098500
     18 C9        -103.8810    71.6010   186.9530 ca         1 YTU      -0.111500
     19 F26        -96.1180    74.9750   177.5040 f          1 YTU      -0.096000
     20 F27        -98.2060    75.1790   177.0180 f          1 YTU      -0.096000
     21 F28        -97.5440    75.4360   179.0470 f          1 YTU      -0.096000
     22 N14       -100.8080    68.7140   179.2000 nu         1 YTU      -0.908100
     23 N16        -98.6010    69.4410   178.9220 nd         1 YTU      -0.567800
     24 N17        -98.0950    70.6740   178.6780 n          1 YTU      -0.061500
     25 N22        -98.8440    72.8740   178.4230 na         1 YTU      -0.753900
     26 N24       -100.2550    70.9950   178.8720 nc         1 YTU      -0.766000
     27 O19        -95.8980    70.1080   178.5010 o          1 YTU      -0.450000
     28 H35       -103.2510    71.1940   188.9660 ha         1 YTU       0.113000
     29 H36       -101.5870    69.4950   188.2720 ha         1 YTU       0.113000
     30 H39       -102.7580    68.1070   179.3610 h1         1 YTU       0.065700
     31 H38       -102.5610    69.7990   178.9600 h1         1 YTU       0.065700
     32 H41        -95.5240    72.6920   178.0190 ha         1 YTU       0.240000
     33 H29       -102.6430    71.4510   180.7050 ha         1 YTU       0.115000
     34 H37       -101.2810    68.9610   185.8990 ha         1 YTU       0.113500
     35 H30       -102.0660    67.3410   181.7390 ha         1 YTU       0.115000
     36 H31       -102.3220    67.8950   184.1050 ha         1 YTU       0.115500
     37 H32       -102.8760    72.0170   183.0740 ha         1 YTU       0.115500
     38 H33       -104.3340    71.7910   184.8740 ha         1 YTU       0.113500
     39 H34       -104.6140    72.3430   187.2450 ha         1 YTU       0.113000
     40 H40       -100.4430    67.8050   179.4350 hn         1 YTU       0.498000
     41 H42        -99.6220    73.5200   178.4080 hn         1 YTU       0.549000
     42 C13       -102.1740    68.9990   179.5890 c3         1 YTU       0.277100
@<TRIPOS>BOND
     1     1     2 ar  
     2     1    18 ar  
     3     1    28 1   
     4     2    10 ar  
     5     2    29 1   
     6     3    22 1   
     7     3    23 2   
     8     3    26 1   
     9     4     5 1   
    10     4    24 1   
    11     4    27 2   
    12     5     6 2   
    13     5    32 1   
    14     6     8 1   
    15     6    25 1   
    16     7    24 1   
    17     7    25 1   
    18     7    26 2   
    19     8    19 1   
    20     8    20 1   
    21     8    21 1   
    22     9    11 ar  
    23     9    15 ar  
    24     9    33 1   
    25    10    16 ar  
    26    10    34 1   
    27    11    12 ar  
    28    11    42 1   
    29    12    13 ar  
    30    12    35 1   
    31    13    14 ar  
    32    13    36 1   
    33    14    15 ar  
    34    14    16 1   
    35    15    37 1   
    36    16    17 ar  
    37    17    18 ar  
    38    17    38 1   
    39    18    39 1   
    40    22    40 1   
    41    22    42 1   
    42    23    24 1   
    43    25    41 1   
    44    30    42 1   
    45    31    42 1   
@<TRIPOS>SUBSTRUCTURE
     1 YTU         1 TEMP              0 ****  ****    0 ROOT
