@<TRIPOS>MOLECULE
YTU
   42    45     1     0     0
SMALL
No Charge or Current Charge


@<TRIPOS>ATOM
      1 C10        103.2570    70.7940   188.0710 ca         1 YTU      -0.106000
      2 C11       -102.6330    69.5990   187.6780 ca         1 YTU      -0.111500
      3 C15        -99.7060    69.7470   179.0750 cc         1 YTU       0.816900
      4 C18        -96.5820    71.1870   178.7280 c          1 YTU       0.558000
      5 C20        -96.5450    72.5760   178.2380 cc         1 YTU      -0.318200
      6 C21        -97.6350    73.3750   177.8960 cd         1 YTU       0.063800
      7 C23        -98.9190    71.4800   178.4980 cd         1 YTU       0.691400
      8 C25        -97.5040    74.8150   177.3920 c3         1 YTU       0.361200
      9 C1         102.1870    70.6920   181.5660 ca         1 YTU      -0.092000
     10 C12       -102.4410    69.3210   186.3130 ca         1 YTU      -0.098500
     11 C2         102.2720    69.3710   181.0890 ca         1 YTU      -0.124300
     12 C3        -102.5520    68.3310   181.9950 ca         1 YTU      -0.092000
     13 C4         102.7440    68.6100   183.3600 ca         1 YTU      -0.104000
     14 C5        -102.6630    69.9350   183.8570 cp         1 YTU      -0.024000
     15 C6         102.3800    70.9690   182.9300 ca         1 YTU      -0.104000
     16 C7        -102.8680    70.2310   185.3120 cp         1 YTU      -0.037000
     17 C8         103.4950    71.4310   185.7340 ca         1 YTU      -0.098500
     18 C9        -103.6890    71.7100   187.0990 ca         1 YTU      -0.111500
     19 F26        -96.7800    74.8780   176.2520 f          1 YTU      -0.096000
     20 F27        -98.7020    75.3880   177.1300 f          1 YTU      -0.096000
     21 F28        -96.8820    75.6030   178.2990 f          1 YTU      -0.096000
     22 N14       -100.6360    68.8230   179.3520 nu         1 YTU      -0.908100
     23 N16        -98.4270    69.4830   179.2330 nd         1 YTU      -0.567800
     24 N17        -97.8760    70.6980   178.8320 n          1 YTU      -0.061500
     25 N22        -98.9060    72.7620   178.0440 na         1 YTU      -0.753900
     26 N24       -100.0980    70.9590   178.6200 nc         1 YTU      -0.766000
     27 O19        -95.5860    70.5360   179.0120 o          1 YTU      -0.450000
     28 H35       -103.4060    71.0090   189.1270 ha         1 YTU       0.113000
     29 H36        102.2950    68.8890   188.4300 ha         1 YTU       0.113000
     30 H39       -102.6490    68.1860   179.3320 h1         1 YTU       0.065700
     31 H38        102.4380    69.9070   179.0060 h1         1 YTU       0.065700
     32 H41        -95.5370    72.9680   178.1530 ha         1 YTU       0.240000
     33 H29        101.9650    71.5060   180.8790 ha         1 YTU       0.115000
     34 H37       -101.9440    68.3970   186.0310 ha         1 YTU       0.113500
     35 H30        102.6220    67.3040   181.6440 ha         1 YTU       0.115000
     36 H31       -102.9720    67.7890   184.0350 ha         1 YTU       0.115500
     37 H32        102.2950    71.9970   183.2730 ha         1 YTU       0.115500
     38 H33       -103.8490    72.1480   184.9980 ha         1 YTU       0.113500
     39 H34        104.1750    72.6340   187.4010 ha         1 YTU       0.113000
     40 H40       -100.2150    68.0130   179.7930 hn         1 YTU       0.498000
     41 H42        -99.7910    73.2120   177.8350 hn         1 YTU       0.549000
     42 C13       -102.0600    69.0710   179.6110 c3         1 YTU       0.277100
@<TRIPOS>BOND
     1     1     2 ar  
     2     1    18 ar  
     3     1    28 1   
     4     2    10 ar  
     5     2    29 1   
     6     3    22 1   
     7     3    23 2   
     8     3    26 1   
     9     4     5 1   
    10     4    24 1   
    11     4    27 2   
    12     5     6 2   
    13     5    32 1   
    14     6     8 1   
    15     6    25 1   
    16     7    24 1   
    17     7    25 1   
    18     7    26 2   
    19     8    19 1   
    20     8    20 1   
    21     8    21 1   
    22     9    11 ar  
    23     9    15 ar  
    24     9    33 1   
    25    10    16 ar  
    26    10    34 1   
    27    11    12 ar  
    28    11    42 1   
    29    12    13 ar  
    30    12    35 1   
    31    13    14 ar  
    32    13    36 1   
    33    14    15 ar  
    34    14    16 1   
    35    15    37 1   
    36    16    17 ar  
    37    17    18 ar  
    38    17    38 1   
    39    18    39 1   
    40    22    40 1   
    41    22    42 1   
    42    23    24 1   
    43    25    41 1   
    44    30    42 1   
    45    31    42 1   
@<TRIPOS>SUBSTRUCTURE
     1 YTU         1 TEMP              0 ****  ****    0 ROOT
