@<TRIPOS>MOLECULE
YTV
   58    61     1     0     0
SMALL
No Charge or Current Charge


@<TRIPOS>ATOM
      1 C1           7.5790    -0.7400    21.4980 c          1 YTV       0.564200
      2 C2           7.9440    -0.0920    22.7750 cc         1 YTV      -0.167400
      3 C3           7.2980    -0.4520    24.0370 ca         1 YTV       0.016200
      4 C4           6.6240     0.5240    24.7950 ca         1 YTV      -0.141000
      5 C5           6.0080     0.1770    26.0060 ca         1 YTV       0.153000
      6 C6           6.0590    -1.1440    26.4710 ca         1 YTV      -0.141000
      7 O1           6.7350    -1.6260    21.4340 o          1 YTV      -0.530000
      8 N3           8.2920    -0.2870    20.3600 n          1 YTV      -0.190200
      9 C7           6.7270    -2.1270    25.7260 ca         1 YTV       0.156100
     10 C8           7.3690    -4.5010    25.5290 c3         1 YTV       0.168600
     11 C9           7.1790    -5.7950    26.3580 c3         1 YTV      -0.106400
     12 O4          11.5510     2.2460    19.4150 o          1 YTV      -0.525000
     13 O5          13.5890     5.1770    22.1140 o          1 YTV      -0.542000
     14 C10          5.7580    -6.4370    26.3480 c3         1 YTV       0.189000
     15 C11          5.3240    -6.8660    24.9260 c3         1 YTV      -0.100600
     16 C12          4.6800    -5.5360    26.9960 c3         1 YTV      -0.100600
     17 C13          7.3490    -1.7780    24.5080 ca         1 YTV      -0.172000
     18 C14          8.9360     0.8620    22.8850 cd         1 YTV      -0.074000
     19 C15          9.6530     1.2820    21.6970 cd         1 YTV      -0.141000
     20 C16         10.7240     2.2960    21.7070 cd         1 YTV      -0.210200
     21 C17         11.5930     2.7110    20.5410 c          1 YTV       0.593200
     22 C18         10.9540     2.9360    22.9210 cc         1 YTV       0.003600
     23 C19         12.7410     4.3180    21.9820 c          1 YTV       0.616000
     24 C20          9.2840     0.6980    20.4910 cc         1 YTV       0.020600
     25 C21          8.1060    -0.9250    19.0640 ca         1 YTV      -0.042400
     26 C22          9.1870    -1.1070    18.1700 ca         1 YTV      -0.061000
     27 C23          8.9320    -1.6290    16.8910 ca         1 YTV      -0.160000
     28 C24          7.6130    -1.9240    16.5170 ca         1 YTV       0.349900
     29 C25          6.8060    -1.2120    18.5700 ca         1 YTV       0.371900
     30 N1          12.5060     3.6850    20.8140 ns         1 YTV      -0.470500
     31 N2          11.9440     3.9060    23.0000 ns         1 YTV      -0.513600
     32 N4           6.5580    -1.7100    17.3330 nb         1 YTV      -0.655000
     33 O3           5.8350    -7.6280    27.1340 oh         1 YTV      -0.664000
     34 Cl1          5.1660     1.4040    26.9430 cl         1 YTV      -0.203000
     35 H1           6.5720     1.5510    24.4410 ha         1 YTV       0.130000
     36 H2           5.5800    -1.4090    27.4090 ha         1 YTV       0.143000
     37 H3           8.4440    -4.3070    25.4230 h1         1 YTV       0.041200
     38 H4           6.9460    -4.6240    24.5250 h1         1 YTV       0.041200
     39 H5           7.8920    -6.5350    25.9740 hc         1 YTV       0.056700
     40 H6           7.4850    -5.5920    27.3910 hc         1 YTV       0.056700
     41 H8           4.3870    -7.4350    24.9610 hc         1 YTV       0.044367
     42 H9           5.1580    -5.9950    24.2820 hc         1 YTV       0.044367
     43 H7           6.0870    -7.4990    24.4570 hc         1 YTV       0.044367
     44 H12          5.0030    -5.1780    27.9810 hc         1 YTV       0.044367
     45 H13          4.4670    -4.6620    26.3690 hc         1 YTV       0.044367
     46 H11          3.7380    -6.0840    27.1240 hc         1 YTV       0.044367
     47 H14          7.8760    -2.5200    23.9160 ha         1 YTV       0.133000
     48 H15          9.1580     1.2500    23.8710 ha         1 YTV       0.186000
     49 H17         10.4430     2.8040    23.8680 h4         1 YTV       0.210000
     50 H19          9.6740     0.9680    19.5240 h4         1 YTV       0.223000
     51 H20         10.2110    -0.8880    18.4630 ha         1 YTV       0.128000
     52 H21          9.7450    -1.8050    16.1920 ha         1 YTV       0.130000
     53 H22          7.3920    -2.3280    15.5300 h4         1 YTV       0.025100
     54 H23          5.9210    -1.0080    19.1710 h4         1 YTV       0.036100
     55 H16         13.0870     3.9660    20.0410 hn         1 YTV       0.347500
     56 H18         12.1210     4.3860    23.8790 hn         1 YTV       0.466000
     57 H10          6.0230    -7.3510    28.0560 ho         1 YTV       0.439000
     58 O2           6.7440    -3.4120    26.2280 os         1 YTV      -0.349100
@<TRIPOS>BOND
     1     1     2 1   
     2     1     7 2   
     3     1     8 1   
     4     2     3 1   
     5     2    18 2   
     6     3     4 ar  
     7     3    17 ar  
     8     4     5 ar  
     9     4    35 1   
    10     5     6 ar  
    11     5    34 1   
    12     6     9 ar  
    13     6    36 1   
    14     8    24 1   
    15     8    25 1   
    16     9    17 ar  
    17     9    58 1   
    18    10    11 1   
    19    10    37 1   
    20    10    38 1   
    21    10    58 1   
    22    11    14 1   
    23    11    39 1   
    24    11    40 1   
    25    12    21 2   
    26    13    23 2   
    27    14    15 1   
    28    14    16 1   
    29    14    33 1   
    30    15    41 1   
    31    15    42 1   
    32    15    43 1   
    33    16    44 1   
    34    16    45 1   
    35    16    46 1   
    36    17    47 1   
    37    18    19 1   
    38    18    48 1   
    39    19    20 1   
    40    19    24 2   
    41    20    21 1   
    42    20    22 2   
    43    21    30 1   
    44    22    31 1   
    45    22    49 1   
    46    23    30 1   
    47    23    31 1   
    48    24    50 1   
    49    25    26 ar  
    50    25    29 ar  
    51    26    27 ar  
    52    26    51 1   
    53    27    28 ar  
    54    27    52 1   
    55    28    32 ar  
    56    28    53 1   
    57    29    32 ar  
    58    29    54 1   
    59    30    55 1   
    60    31    56 1   
    61    33    57 1   
@<TRIPOS>SUBSTRUCTURE
     1 YTV         1 TEMP              0 ****  ****    0 ROOT
