@<TRIPOS>MOLECULE
YTV
   58    61     1     0     0
SMALL
bcc


@<TRIPOS>ATOM
      1 C1           7.9320    -0.8680    21.6120 c          1 YTV       0.706700
      2 C2           8.1910    -0.1220    22.8270 cc         1 YTV      -0.167400
      3 C3           7.5140    -0.5170    24.0780 ca         1 YTV       0.016200
      4 C4           6.9590     0.4670    24.8910 ca         1 YTV      -0.159000
      5 C5           6.3790     0.0930    26.0930 ca         1 YTV       0.061400
      6 C6           6.3200    -1.2220    26.5040 ca         1 YTV      -0.159000
      7 O1           7.1870    -1.8300    21.5060 o          1 YTV      -0.605500
      8 N3           8.6110    -0.3910    20.4890 n          1 YTV      -0.257200
      9 C7           6.8710    -2.2060    25.6800 ca         1 YTV       0.156100
     10 C8           7.2220    -4.5360    25.3180 c3         1 YTV       0.145400
     11 C9           6.9780    -5.8510    26.0270 c3         1 YTV      -0.106400
     12 O4           9.8770     3.4770    19.5960 o          1 YTV      -0.600500
     13 O5          12.9890     5.8090    21.9190 o          1 YTV      -0.617500
     14 C10          5.5300    -6.3640    26.1520 c3         1 YTV       0.165800
     15 C11          4.8860    -6.5350    24.7820 c3         1 YTV      -0.100600
     16 C12          4.6590    -5.4710    27.0320 c3         1 YTV      -0.100600
     17 C13          7.4650    -1.8560    24.4720 ca         1 YTV      -0.190000
     18 C14          9.0300     0.9520    22.8000 cd         1 YTV      -0.024000
     19 C15          9.6960     1.3840    21.6250 cd         1 YTV      -0.141000
     20 C16         10.6050     2.5360    21.6530 cd         1 YTV      -0.210200
     21 C17         10.5760     3.5300    20.5880 c          1 YTV       0.735700
     22 C18         11.4510     2.7450    22.6860 cc         1 YTV       0.053600
     23 C19         12.2820     4.8290    21.8340 c          1 YTV       0.825500
     24 C20          9.4570     0.6720    20.4910 cc         1 YTV       0.070600
     25 C21          8.4080    -1.0930    19.2640 ca         1 YTV      -0.107700
     26 C22          9.3350    -2.0170    18.8180 ca         1 YTV      -0.079000
     27 C23          9.0870    -2.6610    17.6170 ca         1 YTV      -0.243300
     28 C24          7.9230    -2.3540    16.9290 ca         1 YTV       0.415200
     29 C25          7.2750    -0.8450    18.5040 ca         1 YTV       0.437200
     30 N1          11.4320     4.6020    20.7810 ns         1 YTV      -0.604500
     31 N2          12.2520     3.8360    22.7760 ns         1 YTV      -0.467100
     32 N4           7.0350    -1.4640    17.3580 nb         1 YTV      -0.655000
     33 O3           5.5870    -7.6710    26.7140 oh         1 YTV      -0.601800
     34 CL1          5.6900     1.3190    27.1090 cl         1 YTV      -0.111400
     35 H1           6.9650     1.5050    24.5860 ha         1 YTV       0.148000
     36 H2           5.8560    -1.4980    27.4410 ha         1 YTV       0.161000
     37 H3           8.2950    -4.4380    25.1200 h1         1 YTV       0.041200
     38 H4           6.7100    -4.5050    24.3510 h1         1 YTV       0.041200
     39 H5           7.5430    -6.6060    25.4720 hc         1 YTV       0.056700
     40 H6           7.4310    -5.8010    27.0230 hc         1 YTV       0.056700
     41 H8           3.9040    -7.0010    24.8780 hc         1 YTV       0.044367
     42 H9           4.7420    -5.5740    24.2890 hc         1 YTV       0.044367
     43 H7           5.4980    -7.1590    24.1280 hc         1 YTV       0.044367
     44 H12          5.1220    -5.3000    28.0070 hc         1 YTV       0.044367
     45 H13          4.4790    -4.4980    26.5770 hc         1 YTV       0.044367
     46 H11          3.6900    -5.9460    27.1970 hc         1 YTV       0.044367
     47 H14          7.9090    -2.6080    23.8380 ha         1 YTV       0.151000
     48 H15          9.1980     1.5010    23.7200 ha         1 YTV       0.136000
     49 H17         11.5430     2.0470    23.5070 h4         1 YTV       0.160000
     50 H19          9.9220     0.8970    19.5430 h4         1 YTV       0.173000
     51 H20         10.2260    -2.2290    19.3960 ha         1 YTV       0.146000
     52 H21          9.7800    -3.3910    17.2220 ha         1 YTV       0.148000
     53 H22          7.7000    -2.8450    15.9890 h4         1 YTV       0.025100
     54 H23          6.5430    -0.1180    18.8390 h4         1 YTV       0.036100
     55 H16         11.4270     5.3140    20.0600 hn         1 YTV       0.347500
     56 H18         12.8620     3.9360    23.5750 hn         1 YTV       0.352500
     57 H10          5.9360    -7.5980    27.6090 ho         1 YTV       0.400000
     58 O2           6.7860    -3.4640    26.1410 os         1 YTV      -0.325900
@<TRIPOS>BOND
     1     1     2 1   
     2     1     7 2   
     3     1     8 1   
     4     2     3 1   
     5     2    18 2   
     6     3     4 ar  
     7     3    17 ar  
     8     4     5 ar  
     9     4    35 1   
    10     5     6 ar  
    11     5    34 1   
    12     6     9 ar  
    13     6    36 1   
    14     8    24 1   
    15     8    25 1   
    16     9    17 ar  
    17     9    58 1   
    18    10    11 1   
    19    10    37 1   
    20    10    38 1   
    21    10    58 1   
    22    11    14 1   
    23    11    39 1   
    24    11    40 1   
    25    12    21 2   
    26    13    23 2   
    27    14    15 1   
    28    14    16 1   
    29    14    33 1   
    30    15    41 1   
    31    15    42 1   
    32    15    43 1   
    33    16    44 1   
    34    16    45 1   
    35    16    46 1   
    36    17    47 1   
    37    18    19 1   
    38    18    48 1   
    39    19    20 1   
    40    19    24 2   
    41    20    21 1   
    42    20    22 2   
    43    21    30 1   
    44    22    31 1   
    45    22    49 1   
    46    23    30 1   
    47    23    31 1   
    48    24    50 1   
    49    25    26 ar  
    50    25    29 ar  
    51    26    27 ar  
    52    26    51 1   
    53    27    28 ar  
    54    27    52 1   
    55    28    32 ar  
    56    28    53 1   
    57    29    32 ar  
    58    29    54 1   
    59    30    55 1   
    60    31    56 1   
    61    33    57 1   
@<TRIPOS>SUBSTRUCTURE
     1 YTV         1 TEMP              0 ****  ****    0 ROOT
