@<TRIPOS>MOLECULE
YTW
   29    30     1     0     0
SMALL
No Charge or Current Charge


@<TRIPOS>ATOM
      1 O1           2.6630    -0.4240     1.4820 o          1 YTW      -0.533000
      2 S1           2.3680     0.3130     0.2520 s6         1 YTW       1.363800
      3 O2           3.3790     1.1010    -0.4520 o          1 YTW      -0.533000
      4 N1           1.0980     1.3190     0.5570 n7         1 YTW      -0.883300
      5 C1           0.1620     1.1680    -0.5980 c5         1 YTW       0.139500
      6 C2           0.2140    -0.3660    -0.9490 c5         1 YTW       0.206300
      7 O3           1.6180    -0.6700    -0.8100 os         1 YTW      -0.546700
      8 C3          -0.6100    -1.2640     0.0230 c6         1 YTW      -0.076700
      9 C4          -0.5790    -2.7630    -0.3900 c3         1 YTW       0.174600
     10 O4          -1.1770    -3.6050     0.6070 oh         1 YTW      -0.664000
     11 C5          -2.0560    -0.7120     0.1910 c6         1 YTW       0.183300
     12 O5          -2.7920    -0.8000    -1.0450 oh         1 YTW      -0.733000
     13 C6          -2.0300     0.7670     0.6980 c6         1 YTW       0.137300
     14 O6          -3.3710     1.2580     0.8950 oh         1 YTW      -0.667000
     15 C7          -1.2770     1.7030    -0.2990 c6         1 YTW       0.154300
     16 O7          -1.2670     3.0580     0.2130 oh         1 YTW      -0.718000
     17 H1           1.5740     2.2180     0.5420 hn         1 YTW       0.498000
     18 H2           0.5480     1.7300    -1.4620 h1         1 YTW       0.059700
     19 H3          -0.1130    -0.5550    -1.9820 h1         1 YTW       0.109700
     20 H4          -0.1340    -1.2270     1.0120 hc         1 YTW       0.090700
     21 H5          -1.0950    -2.8820    -1.3520 h1         1 YTW       0.036200
     22 H6           0.4680    -3.0600    -0.5420 h1         1 YTW       0.036200
     23 H7          -1.1240    -4.5280     0.2720 ho         1 YTW       0.451000
     24 H8          -2.5580    -1.3140     0.9650 h1         1 YTW       0.081700
     25 H9          -3.6320    -0.3100    -0.8750 ho         1 YTW       0.524000
     26 H10         -1.4840     0.7870     1.6550 h1         1 YTW       0.075700
     27 H11         -3.2670     2.2370     0.9590 ho         1 YTW       0.466000
     28 H12         -1.8300     1.6840    -1.2510 h1         1 YTW       0.056700
     29 H13         -0.7870     3.6140    -0.4430 ho         1 YTW       0.511000
@<TRIPOS>BOND
     1     1     2 2   
     2     2     3 2   
     3     2     4 1   
     4     2     7 1   
     5     4     5 1   
     6     4    17 1   
     7     5     6 1   
     8     5    15 1   
     9     5    18 1   
    10     6     7 1   
    11     6     8 1   
    12     6    19 1   
    13     8     9 1   
    14     8    11 1   
    15     8    20 1   
    16     9    10 1   
    17     9    21 1   
    18     9    22 1   
    19    10    23 1   
    20    11    12 1   
    21    11    13 1   
    22    11    24 1   
    23    12    25 1   
    24    13    14 1   
    25    13    15 1   
    26    13    26 1   
    27    14    27 1   
    28    15    16 1   
    29    15    28 1   
    30    16    29 1   
@<TRIPOS>SUBSTRUCTURE
     1 YTW         1 TEMP              0 ****  ****    0 ROOT
