@<TRIPOS>MOLECULE
YTW
   29    30     1     0     0
SMALL
abcg2


@<TRIPOS>ATOM
      1 O1           2.6670    -0.4630     1.4320 o          1 YTW      -0.533000
      2 S1           2.3700     0.2760     0.2270 s6         1 YTW       1.363800
      3 O2           3.4760     0.9060    -0.4590 o          1 YTW      -0.533000
      4 N1           1.0700     1.2720     0.4710 n7         1 YTW      -0.883300
      5 C1           0.1460     1.1400    -0.6530 c5         1 YTW       0.139500
      6 C2           0.2040    -0.3620    -0.9300 c5         1 YTW       0.206300
      7 O3           1.6150    -0.6750    -0.8260 os         1 YTW      -0.546700
      8 C3          -0.5980    -1.2150     0.0520 c6         1 YTW      -0.076700
      9 C4          -0.5660    -2.6770    -0.3770 c3         1 YTW       0.174600
     10 O4          -1.2640    -3.4410     0.5780 oh         1 YTW      -0.664000
     11 C5          -2.0140    -0.6680     0.1990 c6         1 YTW       0.183300
     12 O5          -2.6590    -0.7660    -1.0500 oh         1 YTW      -0.733000
     13 C6          -1.9600     0.7710     0.7020 c6         1 YTW       0.137300
     14 O6          -3.2850     1.2020     0.9040 oh         1 YTW      -0.667000
     15 C7          -1.2460     1.6580    -0.3080 c6         1 YTW       0.154300
     16 O7          -1.1780     2.9610     0.2240 oh         1 YTW      -0.718000
     17 H1           1.3390     2.2200     0.7140 hn         1 YTW       0.498000
     18 H2           0.5110     1.6850    -1.5330 h1         1 YTW       0.059700
     19 H3          -0.0720    -0.5750    -1.9620 h1         1 YTW       0.109700
     20 H4          -0.1350    -1.1440     1.0420 hc         1 YTW       0.090700
     21 H5          -1.0050    -2.7780    -1.3770 h1         1 YTW       0.036200
     22 H6           0.4790    -3.0020    -0.4540 h1         1 YTW       0.036200
     23 H7          -1.2800    -4.3540     0.2760 ho         1 YTW       0.451000
     24 H8          -2.5360    -1.2680     0.9560 h1         1 YTW       0.081700
     25 H9          -3.5430    -0.3920    -0.9650 ho         1 YTW       0.524000
     26 H10         -1.3970     0.7730     1.6470 h1         1 YTW       0.075700
     27 H11         -3.2710     2.1490     1.0840 ho         1 YTW       0.466000
     28 H12         -1.8240     1.6490    -1.2390 h1         1 YTW       0.056700
     29 H13         -1.1350     3.5940    -0.5000 ho         1 YTW       0.511000
@<TRIPOS>BOND
     1     1     2 2   
     2     2     3 2   
     3     2     4 1   
     4     2     7 1   
     5     4     5 1   
     6     4    17 1   
     7     5     6 1   
     8     5    15 1   
     9     5    18 1   
    10     6     7 1   
    11     6     8 1   
    12     6    19 1   
    13     8     9 1   
    14     8    11 1   
    15     8    20 1   
    16     9    10 1   
    17     9    21 1   
    18     9    22 1   
    19    10    23 1   
    20    11    12 1   
    21    11    13 1   
    22    11    24 1   
    23    12    25 1   
    24    13    14 1   
    25    13    15 1   
    26    13    26 1   
    27    14    27 1   
    28    15    16 1   
    29    15    28 1   
    30    16    29 1   
@<TRIPOS>SUBSTRUCTURE
     1 YTW         1 TEMP              0 ****  ****    0 ROOT
