@<TRIPOS>MOLECULE
YTX
   22    22     1     0     0
SMALL
No Charge or Current Charge


@<TRIPOS>ATOM
      1 C1          -1.5690     0.2810    -0.1140 ca         1 YTX       0.037100
      2 C2          -0.2430     0.6360    -0.4550 ca         1 YTX      -0.135000
      3 C3           0.7290    -0.3630    -0.6680 ca         1 YTX       0.010700
      4 O1           3.5270    -0.7600     0.7310 o          1 YTX      -0.727500
      5 O2           2.9760     1.3220     0.7660 o          1 YTX      -0.727500
      6 C4           2.1570     0.0220    -1.0400 c3         1 YTX      -0.189100
      7 C5           2.9860     0.2200     0.2380 c          1 YTX       0.724000
      8 C6           0.3700    -1.7190    -0.5400 ca         1 YTX      -0.124000
      9 C7          -0.9460    -2.0770    -0.2020 ca         1 YTX      -0.126000
     10 C8          -1.9110    -1.0810     0.0100 ca         1 YTX       0.076100
     11 O3          -3.1890    -1.4270     0.3380 oh         1 YTX      -0.558100
     12 O           -2.5590     1.2250     0.1050 os         1 YTX      -0.384100
     13 C           -2.3080     2.6400     0.0040 c3         1 YTX       0.161900
     14 H1           0.0480     1.6770    -0.5550 ha         1 YTX       0.119000
     15 H3           2.5700    -0.8030    -1.6330 hc         1 YTX       0.030700
     16 H4           2.1030     0.9620    -1.6030 hc         1 YTX       0.030700
     17 H5           1.1130    -2.4970    -0.7000 ha         1 YTX       0.107000
     18 H6          -1.2160    -3.1260    -0.1040 ha         1 YTX       0.106000
     19 H7          -3.6860    -0.5830     0.4380 ho         1 YTX       0.465000
     20 H8          -1.5410     2.9530     0.7240 h1         1 YTX       0.034033
     21 H9          -1.9720     2.9050    -1.0070 h1         1 YTX       0.034033
     22 H10         -3.2250     3.2050     0.2160 h1         1 YTX       0.034033
@<TRIPOS>BOND
     1     1     2 ar  
     2     1    10 ar  
     3     1    12 1   
     4     2     3 ar  
     5     2    14 1   
     6     3     6 1   
     7     3     8 ar  
     8     4     7 1   
     9     5     7 1   
    10     6     7 1   
    11     6    15 1   
    12     6    16 1   
    13     8     9 ar  
    14     8    17 1   
    15     9    10 ar  
    16     9    18 1   
    17    10    11 1   
    18    11    19 1   
    19    12    13 1   
    20    13    20 1   
    21    13    21 1   
    22    13    22 1   
@<TRIPOS>SUBSTRUCTURE
     1 YTX         1 TEMP              0 ****  ****    0 ROOT
