@<TRIPOS>MOLECULE
YTX
   22    22     1     0     0
SMALL
bcc


@<TRIPOS>ATOM
      1 C1          -1.5500     0.3300    -0.1330 ca         1 YTX       0.037100
      2 C2          -0.2240     0.5840    -0.4370 ca         1 YTX      -0.153000
      3 C3           0.6910    -0.4600    -0.6150 ca         1 YTX       0.010700
      4 O1           4.1810     0.5520    -0.0360 o          1 YTX      -0.832800
      5 O2           2.4240     0.5220     1.3340 o          1 YTX      -0.832800
      6 C4           2.1180    -0.1580    -0.9460 c3         1 YTX      -0.189100
      7 C5           2.9810     0.3510     0.2360 c          1 YTX       0.934600
      8 C6           0.2340    -1.7610    -0.4750 ca         1 YTX      -0.142000
      9 C7          -1.0970    -2.0280    -0.1620 ca         1 YTX      -0.144000
     10 C8          -1.9970    -0.9950     0.0110 ca         1 YTX       0.076100
     11 O3          -3.2870    -1.2740     0.3090 oh         1 YTX      -0.519100
     12 O           -2.5060     1.2710     0.0490 os         1 YTX      -0.360900
     13 C           -2.1430     2.6310    -0.0570 c3         1 YTX       0.138700
     14 H1           0.1230     1.6030    -0.5500 ha         1 YTX       0.137000
     15 H3           2.6010    -1.0480    -1.3630 hc         1 YTX       0.030700
     16 H4           2.1670     0.5970    -1.7380 hc         1 YTX       0.030700
     17 H5           0.9180    -2.5900    -0.6100 ha         1 YTX       0.125000
     18 H6          -1.4390    -3.0500    -0.0540 ha         1 YTX       0.124000
     19 H7          -3.7820    -0.4550     0.4260 ho         1 YTX       0.426000
     20 H8          -1.3810     2.9060     0.6760 h1         1 YTX       0.034033
     21 H9          -1.7740     2.8760    -1.0560 h1         1 YTX       0.034033
     22 H10         -3.0430     3.2100     0.1380 h1         1 YTX       0.034033
@<TRIPOS>BOND
     1     1     2 ar  
     2     1    10 ar  
     3     1    12 1   
     4     2     3 ar  
     5     2    14 1   
     6     3     6 1   
     7     3     8 ar  
     8     4     7 1   
     9     5     7 1   
    10     6     7 1   
    11     6    15 1   
    12     6    16 1   
    13     8     9 ar  
    14     8    17 1   
    15     9    10 ar  
    16     9    18 1   
    17    10    11 1   
    18    11    19 1   
    19    12    13 1   
    20    13    20 1   
    21    13    21 1   
    22    13    22 1   
@<TRIPOS>SUBSTRUCTURE
     1 YTX         1 TEMP              0 ****  ****    0 ROOT
