@<TRIPOS>MOLECULE
YTY
  107   110     1     0     0
SMALL
No Charge or Current Charge


@<TRIPOS>ATOM
      1 C13         19.2000    -0.0800    14.4130 c3         1 YTY       0.154300
      2 C15         19.3540     0.2420    15.9320 c3         1 YTY       0.095700
      3 C17         21.7960     0.6340    16.3220 c          1 YTY       0.640100
      4 C20         23.9210     1.2750    17.1930 c5         1 YTY       0.161300
      5 C21         24.7980     2.5520    17.0930 c5         1 YTY       0.152600
      6 C24         24.5940     2.2390    19.3720 c5         1 YTY       0.369300
      7 C26         22.3490     2.1720    19.9300 c5         1 YTY       0.152600
      8 C28         18.0920     0.8370    16.6130 c3         1 YTY      -0.040100
      9 C01         17.6710    -6.9880    12.2340 ca         1 YTY      -0.074300
     10 C02         17.6610    -5.6970    11.6670 ca         1 YTY      -0.122000
     11 C03         17.3380    -4.5750    12.4490 ca         1 YTY      -0.016000
     12 C04         17.0360    -4.7280    13.8160 ca         1 YTY      -0.299500
     13 C05         17.0290    -6.0180    14.3860 ca         1 YTY      -0.016000
     14 C06         17.3480    -7.1370    13.5990 ca         1 YTY      -0.122000
     15 C11         19.3510    -3.1560    14.8090 c3         1 YTY       0.204800
     16 C12         18.0710    -1.1110    14.1040 c3         1 YTY       0.216800
     17 C23         24.0370     0.9220    18.7330 c5         1 YTY      -0.146700
     18 C25         22.6570     0.7300    19.4660 c5         1 YTY      -0.094400
     19 C29         18.3450     1.2430    18.0650 ca         1 YTY      -0.116300
     20 C30         18.6750     0.2680    19.0260 ca         1 YTY      -0.067500
     21 C31         18.9410     0.6390    20.3550 ca         1 YTY      -0.162000
     22 C32         18.8720     1.9950    20.7360 ca         1 YTY       0.129100
     23 C33         18.5370     2.9660    19.7800 ca         1 YTY      -0.162000
     24 C34         18.2750     2.5960    18.4500 ca         1 YTY      -0.067500
     25 C36         19.6370    -4.1440    15.9830 c3         1 YTY      -0.067700
     26 C37         20.9440    -4.9570    15.7370 c3         1 YTY      -0.071900
     27 C38         19.6670    -3.3940    17.3490 c3         1 YTY      -0.071900
     28 C39         19.7550    -4.2980    18.5980 c3         1 YTY      -0.089100
     29 C40         18.0210    -8.2000    11.3720 c3         1 YTY       0.212600
     30 C41         19.5330     1.5000    23.0740 c3         1 YTY      -0.208400
     31 C45         17.1140     2.5570    24.7320 c3         1 YTY       0.221600
     32 C46         20.2790     1.3390    27.1000 c3         1 YTY       0.221600
     33 C47         16.7940     1.2230    25.4380 c3         1 YTY      -0.098100
     34 C48         19.9360     0.0790    27.9070 c3         1 YTY      -0.098100
     35 C50         16.8630    -9.2120    11.2740 c3         1 YTY      -0.086100
     36 C52         20.9350    -5.8410    14.4690 c3         1 YTY      -0.089100
     37 N10         18.0830    -2.3760    14.9010 n3         1 YTY      -0.753500
     38 N16         20.5210     1.0970    16.1880 ns         1 YTY      -0.501900
     39 O08         16.2810    -3.6750    16.1840 o          1 YTY      -0.535500
     40 O09         15.6880    -2.4850    14.0060 o          1 YTY      -0.535500
     41 O14         18.9780     1.1350    13.6690 oh         1 YTY      -0.665000
     42 O18         22.1420    -0.5220    16.1340 o          1 YTY      -0.540000
     43 O19         22.5700     1.6530    16.8000 os         1 YTY      -0.450100
     44 O22         24.5590     3.2340    18.3360 os         1 YTY      -0.461000
     45 O27         23.6390     2.6200    20.3800 os         1 YTY      -0.424000
     46 O35         19.1340     2.4180    22.0240 os         1 YTY      -0.335100
     47 O43         18.4170     3.0290    25.1210 os         1 YTY      -0.602400
     48 O44         19.8880     1.0920    25.7480 os         1 YTY      -0.602400
     49 O49         21.0190     3.2290    24.7460 o          1 YTY      -0.567000
     50 O51         19.1740    -8.8590    11.9030 oh         1 YTY      -0.652000
     51 P42         19.8280     2.3310    24.7130 p5         1 YTY       1.377800
     52 S07         16.6210    -3.2800    14.8130 sy         1 YTY       1.166600
     53 H131        20.1470    -0.5190    14.0770 h1         1 YTY       0.051700
     54 H151        19.5510    -0.7120    16.4350 h1         1 YTY       0.097700
     55 H201        24.3160     0.4890    16.5330 h1         1 YTY       0.077700
     56 H211        24.5240     3.1960    16.2470 h1         1 YTY       0.057200
     57 H212        25.8650     2.3010    17.0180 h1         1 YTY       0.057200
     58 H241        25.6060     2.1250    19.7840 h2         1 YTY       0.078700
     59 H261        21.6270     2.2130    20.7550 h1         1 YTY       0.061700
     60 H262        21.9960     2.8130    19.1100 h1         1 YTY       0.061700
     61 H282        17.7410     1.7000    16.0350 hc         1 YTY       0.064200
     62 H281        17.2820     0.0980    16.5790 hc         1 YTY       0.064200
     63 H021        17.9000    -5.5600    10.6150 ha         1 YTY       0.125000
     64 H031        17.3330    -3.5870    11.9900 ha         1 YTY       0.134500
     65 H051        16.7810    -6.1600    15.4370 ha         1 YTY       0.134500
     66 H061        17.3500    -8.1240    14.0550 ha         1 YTY       0.125000
     67 H112        20.2100    -2.4750    14.7930 h1         1 YTY       0.044700
     68 H111        19.3880    -3.6890    13.8530 h1         1 YTY       0.044700
     69 H121        18.1080    -1.3470    13.0320 h1         1 YTY       0.067700
     70 H122        17.1290    -0.5730    14.2750 h1         1 YTY       0.067700
     71 H231        24.7140     0.0770    18.8990 hc         1 YTY       0.072700
     72 H252        22.7770     0.0800    20.3400 hc         1 YTY       0.061200
     73 H251        21.8580     0.2830    18.8690 hc         1 YTY       0.061200
     74 H301        18.7320    -0.7800    18.7440 ha         1 YTY       0.121500
     75 H311        19.1990    -0.1340    21.0720 ha         1 YTY       0.124000
     76 H331        18.4860     4.0120    20.0710 ha         1 YTY       0.124000
     77 H341        18.0230     3.3630    17.7210 ha         1 YTY       0.121500
     78 H361        18.8200    -4.8690    16.0340 hc         1 YTY       0.074700
     79 H371        21.1260    -5.6220    16.5880 hc         1 YTY       0.044700
     80 H372        21.7980    -4.2710    15.6890 hc         1 YTY       0.044700
     81 H382        20.5050    -2.6870    17.3610 hc         1 YTY       0.044700
     82 H381        18.7530    -2.7970    17.4460 hc         1 YTY       0.044700
     83 H392        19.6250    -3.6970    19.5060 hc         1 YTY       0.032033
     84 H391        18.9700    -5.0630    18.5800 hc         1 YTY       0.032033
     85 H393        20.7290    -4.7940    18.6650 hc         1 YTY       0.032033
     86 H401        18.2410    -7.8510    10.3530 h1         1 YTY       0.036700
     87 H412        18.7730     0.7290    23.2370 h1         1 YTY       0.069200
     88 H411        20.4800     1.0080    22.8230 h1         1 YTY       0.069200
     89 H452        17.0370     2.4310    23.6440 h1         1 YTY       0.041450
     90 H451        16.3570     3.2950    25.0250 h1         1 YTY       0.041450
     91 H461        21.3570     1.5360    27.1660 h1         1 YTY       0.041450
     92 H462        19.7390     2.1980    27.5210 h1         1 YTY       0.041450
     93 H473        15.7450     0.9550    25.2660 hc         1 YTY       0.047533
     94 H471        17.4110     0.4020    25.0590 hc         1 YTY       0.047533
     95 H472        16.9480     1.3130    26.5190 hc         1 YTY       0.047533
     96 H481        20.2190     0.2130    28.9580 hc         1 YTY       0.047533
     97 H483        18.8600    -0.1260    27.8630 hc         1 YTY       0.047533
     98 H482        20.4760    -0.7900    27.5120 hc         1 YTY       0.047533
     99 H503        15.9660    -8.7250    10.8750 hc         1 YTY       0.049367
    100 H502        17.1300   -10.0370    10.6040 hc         1 YTY       0.049367
    101 H501        16.6190    -9.6320    12.2570 hc         1 YTY       0.049367
    102 H521        21.8360    -6.4640    14.4390 hc         1 YTY       0.032033
    103 H523        20.0630    -6.5060    14.4660 hc         1 YTY       0.032033
    104 H522        20.9190    -5.2370    13.5550 hc         1 YTY       0.032033
    105 H161        20.3740     2.0600    16.4580 hn         1 YTY       0.320500
    106 H141        19.6970     1.7530    13.9230 ho         1 YTY       0.451000
    107 H511        19.8470    -8.1610    12.0480 ho         1 YTY       0.445000
@<TRIPOS>BOND
     1     1     2 1   
     2     1    16 1   
     3     1    41 1   
     4     1    53 1   
     5     2     8 1   
     6     2    38 1   
     7     2    54 1   
     8     3    38 1   
     9     3    42 2   
    10     3    43 1   
    11     4     5 1   
    12     4    17 1   
    13     4    43 1   
    14     4    55 1   
    15     5    44 1   
    16     5    56 1   
    17     5    57 1   
    18     6    17 1   
    19     6    44 1   
    20     6    45 1   
    21     6    58 1   
    22     7    18 1   
    23     7    45 1   
    24     7    59 1   
    25     7    60 1   
    26     8    19 1   
    27     8    61 1   
    28     8    62 1   
    29     9    10 ar  
    30     9    14 ar  
    31     9    29 1   
    32    10    11 ar  
    33    10    63 1   
    34    11    12 ar  
    35    11    64 1   
    36    12    13 ar  
    37    12    52 1   
    38    13    14 ar  
    39    13    65 1   
    40    14    66 1   
    41    15    25 1   
    42    15    37 1   
    43    15    67 1   
    44    15    68 1   
    45    16    37 1   
    46    16    69 1   
    47    16    70 1   
    48    17    18 1   
    49    17    71 1   
    50    18    72 1   
    51    18    73 1   
    52    19    20 ar  
    53    19    24 ar  
    54    20    21 ar  
    55    20    74 1   
    56    21    22 ar  
    57    21    75 1   
    58    22    23 ar  
    59    22    46 1   
    60    23    24 ar  
    61    23    76 1   
    62    24    77 1   
    63    25    26 1   
    64    25    27 1   
    65    25    78 1   
    66    26    36 1   
    67    26    79 1   
    68    26    80 1   
    69    27    28 1   
    70    27    81 1   
    71    27    82 1   
    72    28    83 1   
    73    28    84 1   
    74    28    85 1   
    75    29    35 1   
    76    29    50 1   
    77    29    86 1   
    78    30    46 1   
    79    30    51 1   
    80    30    87 1   
    81    30    88 1   
    82    31    33 1   
    83    31    47 1   
    84    31    89 1   
    85    31    90 1   
    86    32    34 1   
    87    32    48 1   
    88    32    91 1   
    89    32    92 1   
    90    33    93 1   
    91    33    94 1   
    92    33    95 1   
    93    34    96 1   
    94    34    97 1   
    95    34    98 1   
    96    35    99 1   
    97    35   100 1   
    98    35   101 1   
    99    36   102 1   
   100    36   103 1   
   101    36   104 1   
   102    37    52 1   
   103    38   105 1   
   104    39    52 2   
   105    40    52 2   
   106    41   106 1   
   107    47    51 1   
   108    48    51 1   
   109    49    51 2   
   110    50   107 1   
@<TRIPOS>SUBSTRUCTURE
     1 YTY         1 TEMP              0 ****  ****    0 ROOT
