@<TRIPOS>MOLECULE
YTY
  107   110     1     0     0
SMALL
abcg2


@<TRIPOS>ATOM
      1 C13         19.9280    -0.7340    14.6720 c3         1 YTY       0.154300
      2 C15         19.6760    -0.3510    16.1420 c3         1 YTY       0.095700
      3 C17         21.5170     0.1010    17.7070 c          1 YTY       0.640100
      4 C20         23.3780     0.7980    19.0010 c5         1 YTY       0.161300
      5 C21         24.5480     1.7260    18.7240 c5         1 YTY       0.152600
      6 C24         23.6770     2.5710    20.6460 c5         1 YTY       0.369300
      7 C26         21.4340     2.9720    20.5670 c5         1 YTY       0.152600
      8 C28         18.3320     0.3620    16.3570 c3         1 YTY      -0.040100
      9 C01         16.2090    -6.7320    12.8000 ca         1 YTY      -0.074300
     10 C02         15.8020    -5.4140    12.9910 ca         1 YTY      -0.122000
     11 C03         16.4610    -4.5850    13.8810 ca         1 YTY      -0.016000
     12 C04         17.5500    -5.0810    14.5880 ca         1 YTY      -0.299500
     13 C05         17.9770    -6.3890    14.4070 ca         1 YTY      -0.016000
     14 C06         17.3050    -7.2070    13.5120 ca         1 YTY      -0.122000
     15 C11         20.5350    -3.8820    14.1070 c3         1 YTY       0.204800
     16 C12         19.0490    -1.8960    14.2090 c3         1 YTY       0.216800
     17 C23         23.0090     1.1860    20.4420 c5         1 YTY      -0.146700
     18 C25         21.5430     1.4680    20.7690 c5         1 YTY      -0.094400
     19 C29         18.1540     0.7760    17.7890 ca         1 YTY      -0.116300
     20 C30         17.9600    -0.1630    18.7950 ca         1 YTY      -0.067500
     21 C31         17.8870     0.2050    20.1330 ca         1 YTY      -0.162000
     22 C32         18.0110     1.5450    20.4800 ca         1 YTY       0.129100
     23 C33         18.1640     2.5050    19.4850 ca         1 YTY      -0.162000
     24 C34         18.2390     2.1160    18.1600 ca         1 YTY      -0.067500
     25 C36         21.7150    -4.4250    14.9220 c3         1 YTY      -0.067700
     26 C37         22.7850    -4.9350    13.9520 c3         1 YTY      -0.071900
     27 C38         22.2690    -3.3660    15.8730 c3         1 YTY      -0.071900
     28 C39         23.3980    -3.8480    16.7760 c3         1 YTY      -0.089100
     29 C40         15.4300    -7.6330    11.8650 c3         1 YTY       0.212600
     30 C41         18.2210     1.0910    22.8060 c3         1 YTY      -0.208400
     31 C45         17.1040     4.1890    24.2400 c3         1 YTY       0.221600
     32 C46         20.1110     0.3320    25.6490 c3         1 YTY       0.221600
     33 C47         16.4130     4.9350    25.3560 c3         1 YTY      -0.098100
     34 C48         19.9100    -0.5570    26.8510 c3         1 YTY      -0.098100
     35 C50         14.2910    -8.3060    12.6180 c3         1 YTY      -0.086100
     36 C52         22.3280    -6.0570    13.0260 c3         1 YTY      -0.089100
     37 N10         19.4880    -3.1440    14.8310 n3         1 YTY      -0.753500
     38 N16         20.7650     0.4600    16.6500 ns         1 YTY      -0.501900
     39 O08         19.1720    -4.8760    16.6130 o          1 YTY      -0.535500
     40 O09         17.4450    -3.0860    16.2780 o          1 YTY      -0.535500
     41 O14         19.6860     0.3320    13.7840 oh         1 YTY      -0.665000
     42 O18         21.4690    -0.9670    18.2830 o          1 YTY      -0.540000
     43 O19         22.3600     1.0890    18.0460 os         1 YTY      -0.450100
     44 O22         24.2460     2.9220    19.4050 os         1 YTY      -0.461000
     45 O27         22.6930     3.4750    21.0020 os         1 YTY      -0.424000
     46 O35         18.0030     2.0030    21.7560 os         1 YTY      -0.335100
     47 O43         17.4690     2.8820    24.7190 os         1 YTY      -0.602400
     48 O44         18.8910     1.0620    25.4210 os         1 YTY      -0.602400
     49 O49         19.9680     2.9250    23.9190 o          1 YTY      -0.567000
     50 O51         16.2270    -8.6490    11.3040 oh         1 YTY      -0.652000
     51 P42         18.7700     2.1050    24.2170 p5         1 YTY       1.377800
     52 S07         18.4110    -4.0210    15.7180 sy         1 YTY       1.166600
     53 H131        20.9740    -1.0600    14.6020 h1         1 YTY       0.051700
     54 H151        19.6800    -1.2710    16.7260 h1         1 YTY       0.097700
     55 H201        23.6710    -0.2490    18.9230 h1         1 YTY       0.077700
     56 H211        24.6940     1.9380    17.6640 h1         1 YTY       0.057200
     57 H212        25.4680     1.2660    19.1080 h1         1 YTY       0.057200
     58 H241        24.4470     2.5810    21.4270 h2         1 YTY       0.078700
     59 H261        20.6560     3.4320    21.1740 h1         1 YTY       0.061700
     60 H262        21.2470     3.2270    19.5190 h1         1 YTY       0.061700
     61 H282        18.2770     1.2400    15.7110 hc         1 YTY       0.064200
     62 H281        17.5240    -0.3050    16.0530 hc         1 YTY       0.064200
     63 H021        14.9520    -5.0280    12.4380 ha         1 YTY       0.125000
     64 H031        16.1190    -3.5680    14.0210 ha         1 YTY       0.134500
     65 H051        18.8200    -6.7800    14.9600 ha         1 YTY       0.134500
     66 H061        17.6410    -8.2270    13.3770 ha         1 YTY       0.125000
     67 H112        20.9360    -3.1730    13.3800 h1         1 YTY       0.044700
     68 H111        20.0790    -4.6840    13.5180 h1         1 YTY       0.044700
     69 H121        19.1250    -1.9890    13.1220 h1         1 YTY       0.067700
     70 H122        18.0000    -1.7000    14.4280 h1         1 YTY       0.067700
     71 H231        23.4320     0.4420    21.1180 hc         1 YTY       0.072700
     72 H252        21.3550     1.2270    21.8170 hc         1 YTY       0.061200
     73 H251        20.8260     0.9040    20.1770 hc         1 YTY       0.061200
     74 H301        17.8700    -1.2130    18.5380 ha         1 YTY       0.121500
     75 H311        17.7370    -0.5620    20.8830 ha         1 YTY       0.124000
     76 H331        18.2500     3.5500    19.7580 ha         1 YTY       0.124000
     77 H341        18.3810     2.8740    17.3980 ha         1 YTY       0.121500
     78 H361        21.3790    -5.2790    15.5170 hc         1 YTY       0.074700
     79 H371        23.6350    -5.2990    14.5340 hc         1 YTY       0.044700
     80 H372        23.1630    -4.0940    13.3600 hc         1 YTY       0.044700
     81 H382        22.6130    -2.5020    15.2930 hc         1 YTY       0.044700
     82 H381        21.4580    -3.0020    16.5030 hc         1 YTY       0.044700
     83 H392        23.6460    -3.0850    17.5140 hc         1 YTY       0.032033
     84 H391        23.1090    -4.7510    17.3190 hc         1 YTY       0.032033
     85 H393        24.3100    -4.0740    16.2230 hc         1 YTY       0.032033
     86 H401        14.9950    -7.0030    11.0780 h1         1 YTY       0.036700
     87 H412        17.3180     0.5260    23.0620 h1         1 YTY       0.069200
     88 H411        19.0120     0.3680    22.5720 h1         1 YTY       0.069200
     89 H452        16.4410     4.0720    23.3820 h1         1 YTY       0.041450
     90 H451        17.9910     4.7330    23.9090 h1         1 YTY       0.041450
     91 H461        20.3590    -0.2680    24.7690 h1         1 YTY       0.041450
     92 H462        20.9300     1.0330    25.8190 h1         1 YTY       0.041450
     93 H473        16.1100     5.9180    24.9980 hc         1 YTY       0.047533
     94 H471        15.5190     4.4100    25.6930 hc         1 YTY       0.047533
     95 H472        17.0780     5.0760    26.2090 hc         1 YTY       0.047533
     96 H481        20.8260    -1.1130    27.0440 hc         1 YTY       0.047533
     97 H483        19.6770     0.0260    27.7420 hc         1 YTY       0.047533
     98 H482        19.1080    -1.2770    26.6850 hc         1 YTY       0.047533
     99 H503        13.6210    -7.5590    13.0410 hc         1 YTY       0.049367
    100 H502        13.7100    -8.9410    11.9490 hc         1 YTY       0.049367
    101 H501        14.6740    -8.9190    13.4360 hc         1 YTY       0.049367
    102 H521        23.1730    -6.4690    12.4730 hc         1 YTY       0.032033
    103 H523        21.8770    -6.8740    13.5940 hc         1 YTY       0.032033
    104 H522        21.5960    -5.7240    12.2900 hc         1 YTY       0.032033
    105 H161        20.8560     1.4060    16.3110 hn         1 YTY       0.320500
    106 H141        20.3970     0.9750    13.8660 ho         1 YTY       0.451000
    107 H511        16.9010    -8.2410    10.7500 ho         1 YTY       0.445000
@<TRIPOS>BOND
     1     1     2 1   
     2     1    16 1   
     3     1    41 1   
     4     1    53 1   
     5     2     8 1   
     6     2    38 1   
     7     2    54 1   
     8     3    38 1   
     9     3    42 2   
    10     3    43 1   
    11     4     5 1   
    12     4    17 1   
    13     4    43 1   
    14     4    55 1   
    15     5    44 1   
    16     5    56 1   
    17     5    57 1   
    18     6    17 1   
    19     6    44 1   
    20     6    45 1   
    21     6    58 1   
    22     7    18 1   
    23     7    45 1   
    24     7    59 1   
    25     7    60 1   
    26     8    19 1   
    27     8    61 1   
    28     8    62 1   
    29     9    10 ar  
    30     9    14 ar  
    31     9    29 1   
    32    10    11 ar  
    33    10    63 1   
    34    11    12 ar  
    35    11    64 1   
    36    12    13 ar  
    37    12    52 1   
    38    13    14 ar  
    39    13    65 1   
    40    14    66 1   
    41    15    25 1   
    42    15    37 1   
    43    15    67 1   
    44    15    68 1   
    45    16    37 1   
    46    16    69 1   
    47    16    70 1   
    48    17    18 1   
    49    17    71 1   
    50    18    72 1   
    51    18    73 1   
    52    19    20 ar  
    53    19    24 ar  
    54    20    21 ar  
    55    20    74 1   
    56    21    22 ar  
    57    21    75 1   
    58    22    23 ar  
    59    22    46 1   
    60    23    24 ar  
    61    23    76 1   
    62    24    77 1   
    63    25    26 1   
    64    25    27 1   
    65    25    78 1   
    66    26    36 1   
    67    26    79 1   
    68    26    80 1   
    69    27    28 1   
    70    27    81 1   
    71    27    82 1   
    72    28    83 1   
    73    28    84 1   
    74    28    85 1   
    75    29    35 1   
    76    29    50 1   
    77    29    86 1   
    78    30    46 1   
    79    30    51 1   
    80    30    87 1   
    81    30    88 1   
    82    31    33 1   
    83    31    47 1   
    84    31    89 1   
    85    31    90 1   
    86    32    34 1   
    87    32    48 1   
    88    32    91 1   
    89    32    92 1   
    90    33    93 1   
    91    33    94 1   
    92    33    95 1   
    93    34    96 1   
    94    34    97 1   
    95    34    98 1   
    96    35    99 1   
    97    35   100 1   
    98    35   101 1   
    99    36   102 1   
   100    36   103 1   
   101    36   104 1   
   102    37    52 1   
   103    38   105 1   
   104    39    52 2   
   105    40    52 2   
   106    41   106 1   
   107    47    51 1   
   108    48    51 1   
   109    49    51 2   
   110    50   107 1   
@<TRIPOS>SUBSTRUCTURE
     1 YTY         1 TEMP              0 ****  ****    0 ROOT
