@<TRIPOS>MOLECULE
YTZ
   25    26     1     0     0
SMALL
No Charge or Current Charge


@<TRIPOS>ATOM
      1 O2           0.6480    -2.0110     1.9360 o          1 YTZ      -0.527000
      2 S1           0.2730    -1.9430     0.5220 sy         1 YTZ       1.172600
      3 O1          -0.0340    -3.1330    -0.2700 o          1 YTZ      -0.527000
      4 C4          -1.0000    -0.7090     0.2670 ca         1 YTZ      -0.396500
      5 C3          -1.5630    -0.5450    -1.0140 ca         1 YTZ       0.046000
      6 C2          -2.5540     0.4290    -1.2180 ca         1 YTZ      -0.220500
      7 C8          -1.4380     0.0950     1.3380 ca         1 YTZ       0.046000
      8 C9          -2.4300     1.0650     1.1180 ca         1 YTZ      -0.220500
      9 C1          -2.9830     1.2300    -0.1550 ca         1 YTZ       0.389000
     10 N1          -3.9450     2.1750    -0.3610 nv         1 YTZ      -1.097000
     11 N2           1.6210    -1.3520    -0.2380 nu         1 YTZ      -0.826000
     12 C5           1.8710    -0.0410    -0.3430 cc         1 YTZ       0.640300
     13 S2           1.8240     1.1280     0.9560 ss         1 YTZ       0.030600
     14 C7           2.3340     2.3140    -0.2120 cc         1 YTZ      -0.296000
     15 C6           2.5220     1.7460    -1.4520 cd         1 YTZ       0.298900
     16 N3           2.2650     0.3830    -1.5200 nd         1 YTZ      -0.691000
     17 H1          -1.2370    -1.1620    -1.8510 ha         1 YTZ       0.133500
     18 H2          -2.9860     0.5550    -2.2060 ha         1 YTZ       0.118500
     19 H3          -1.0170    -0.0210     2.3360 ha         1 YTZ       0.133500
     20 H4          -2.7650     1.6850     1.9450 ha         1 YTZ       0.118500
     21 H5          -4.1070     2.8780     0.3570 hn         1 YTZ       0.481000
     22 H6          -4.1990     2.4260    -1.3140 hn         1 YTZ       0.481000
     23 H7           1.6170    -1.7850    -1.1440 hn         1 YTZ       0.510000
     24 H8           2.4700     3.3450     0.0850 h4         1 YTZ       0.162000
     25 H9           2.8470     2.2730    -2.3410 h4         1 YTZ       0.041100
@<TRIPOS>BOND
     1     1     2 2   
     2     2     3 2   
     3     2     4 1   
     4     2    11 1   
     5     4     5 ar  
     6     4     7 ar  
     7     5     6 ar  
     8     5    17 1   
     9     6     9 ar  
    10     6    18 1   
    11     7     8 ar  
    12     7    19 1   
    13     8     9 ar  
    14     8    20 1   
    15     9    10 1   
    16    10    21 1   
    17    10    22 1   
    18    11    12 1   
    19    11    23 1   
    20    12    13 1   
    21    12    16 2   
    22    13    14 1   
    23    14    15 2   
    24    14    24 1   
    25    15    16 1   
    26    15    25 1   
@<TRIPOS>SUBSTRUCTURE
     1 YTZ         1 TEMP              0 ****  ****    0 ROOT
