@<TRIPOS>MOLECULE
YTZ
   25    26     1     0     0
SMALL
bcc


@<TRIPOS>ATOM
      1 O2           0.7550    -1.5450     1.7680 o          1 YTZ      -0.597800
      2 S1           0.2220    -1.7300     0.4300 sy         1 YTZ       1.314200
      3 O1          -0.1110    -3.0520    -0.0630 o          1 YTZ      -0.597800
      4 C4          -1.1290    -0.6530     0.2020 ca         1 YTZ      -0.396500
      5 C3          -1.9580    -0.8220    -0.9080 ca         1 YTZ       0.028000
      6 C2          -3.0000     0.0480    -1.1260 ca         1 YTZ      -0.238500
      7 C8          -1.3550     0.3970     1.0900 ca         1 YTZ       0.028000
      8 C9          -2.4000     1.2670     0.8740 ca         1 YTZ      -0.238500
      9 C1          -3.2470     1.1150    -0.2390 ca         1 YTZ       0.250600
     10 N1          -4.2940     1.9480    -0.4320 nv         1 YTZ      -0.848200
     11 N2           1.4410    -1.2040    -0.6010 nu         1 YTZ      -0.770800
     12 C5           2.0140     0.0480    -0.4760 cc         1 YTZ       0.640300
     13 S2           2.4010     0.7500     1.0600 ss         1 YTZ      -0.114300
     14 C7           3.0720     2.0980     0.2250 cc         1 YTZ      -0.234400
     15 C6           2.9690     1.9100    -1.1110 cd         1 YTZ       0.364200
     16 N3           2.3620     0.7490    -1.5040 nd         1 YTZ      -0.691000
     17 H1          -1.7980    -1.6330    -1.6060 ha         1 YTZ       0.151500
     18 H2          -3.6420    -0.0900    -1.9870 ha         1 YTZ       0.136500
     19 H3          -0.7250     0.5340     1.9580 ha         1 YTZ       0.151500
     20 H4          -2.5720     2.0750     1.5730 ha         1 YTZ       0.136500
     21 H5          -4.3400     2.8080     0.0870 hn         1 YTZ       0.425800
     22 H6          -4.7550     1.9600    -1.3260 hn         1 YTZ       0.425800
     23 H7           1.3280    -1.5010    -1.5650 hn         1 YTZ       0.454800
     24 H8           3.4800     2.9420     0.7580 h4         1 YTZ       0.180000
     25 H9           3.3160     2.6070    -1.8600 h4         1 YTZ       0.041100
@<TRIPOS>BOND
     1     1     2 2   
     2     2     3 2   
     3     2     4 1   
     4     2    11 1   
     5     4     5 ar  
     6     4     7 ar  
     7     5     6 ar  
     8     5    17 1   
     9     6     9 ar  
    10     6    18 1   
    11     7     8 ar  
    12     7    19 1   
    13     8     9 ar  
    14     8    20 1   
    15     9    10 1   
    16    10    21 1   
    17    10    22 1   
    18    11    12 1   
    19    11    23 1   
    20    12    13 1   
    21    12    16 2   
    22    13    14 1   
    23    14    15 2   
    24    14    24 1   
    25    15    16 1   
    26    15    25 1   
@<TRIPOS>SUBSTRUCTURE
     1 YTZ         1 TEMP              0 ****  ****    0 ROOT
