@<TRIPOS>MOLECULE
YU0
   49    51     1     0     0
SMALL
No Charge or Current Charge


@<TRIPOS>ATOM
      1 C11        -21.6670   -11.7650     9.8890 cc         1 YU0      -0.148400
      2 C12        -21.0900   -12.0030     8.5690 ca         1 YU0       0.072200
      3 C13        -19.8730   -11.4000     8.1980 ca         1 YU0      -0.073000
      4 C14        -19.3030   -11.6620     6.9400 ca         1 YU0      -0.106000
      5 C15        -19.9390   -12.5380     6.0390 ca         1 YU0      -0.109300
      6 C16        -19.3110   -12.7970     4.6730 c3         1 YU0      -0.162100
      7 C24        -21.8420   -12.7220    10.9370 ca         1 YU0      -0.081800
      8 C25        -21.5060   -14.0800    10.9870 ca         1 YU0      -0.074000
      9 C26        -21.7960   -14.7820    12.1730 ca         1 YU0      -0.159000
     10 C27        -22.4030   -14.1180    13.2640 ca         1 YU0      -0.117000
     11 C01        -22.4660   -12.0320    15.6190 c3         1 YU0      -0.083100
     12 C03        -24.7750   -12.6270    14.6990 c3         1 YU0      -0.083100
     13 C04        -22.7310   -12.7410    13.1910 ca         1 YU0      -0.089300
     14 C05        -22.4270   -12.0700    11.9870 ca         1 YU0      -0.064200
     15 C07        -22.1870   -10.5420    10.3310 cd         1 YU0      -0.062300
     16 C08        -22.2900    -9.2470     9.5690 c          1 YU0       0.725200
     17 C18        -20.3420   -10.0220     3.7330 c3         1 YU0      -0.031100
     18 C21        -21.1510   -13.1510     6.4220 ca         1 YU0       0.125000
     19 C23        -21.7180   -12.8900     7.6780 ca         1 YU0      -0.150000
     20 F22        -21.7850   -13.9970     5.5790 f          1 YU0      -0.212000
     21 N06        -22.6450   -10.7340    11.6630 na         1 YU0      -0.195700
     22 N19        -19.3980   -12.0930     1.8810 n8         1 YU0      -1.115000
     23 O09        -22.7740    -8.2890    10.1590 o          1 YU0      -0.702500
     24 O10        -21.9200    -9.1760     8.4060 o          1 YU0      -0.702500
     25 O20        -21.4560   -12.4520     3.0640 oh         1 YU0      -0.790700
     26 S17        -20.0270   -11.7660     3.3740 s6         1 YU0       0.448700
     27 H131       -19.3730   -10.7270     8.8890 ha         1 YU0       0.133000
     28 H141       -18.3660   -11.1810     6.6670 ha         1 YU0       0.100000
     29 H162       -19.4430   -13.8460     4.3800 h1         1 YU0       0.054700
     30 H161       -18.2370   -12.5760     4.7030 h1         1 YU0       0.054700
     31 H251       -21.0380   -14.5760    10.1400 ha         1 YU0       0.107000
     32 H261       -21.5510   -15.8380    12.2500 ha         1 YU0       0.091000
     33 H271       -22.6170   -14.6800    14.1700 ha         1 YU0       0.091000
     34 H012       -22.9140   -11.4520    16.4360 hc         1 YU0       0.029867
     35 H013       -22.2920   -13.0520    15.9810 hc         1 YU0       0.029867
     36 H011       -21.4960   -11.5820    15.3770 hc         1 YU0       0.029867
     37 H021       -23.5590   -10.9750    14.1270 hc         1 YU0       0.048700
     38 H033       -25.2670   -12.0600    15.4990 hc         1 YU0       0.029867
     39 H032       -25.4210   -12.5940    13.8130 hc         1 YU0       0.029867
     40 H031       -24.6910   -13.6710    15.0240 hc         1 YU0       0.029867
     41 H182       -20.8810    -9.9600     4.6850 h1         1 YU0       0.095033
     42 H183       -19.3780    -9.5070     3.8050 h1         1 YU0       0.095033
     43 H181       -20.9440    -9.6040     2.9200 h1         1 YU0       0.095033
     44 H231       -22.6490   -13.3730     7.9610 ha         1 YU0       0.126000
     45 H061       -23.0750   -10.0250    12.2460 hn         1 YU0       0.369000
     46 H191       -18.5550   -12.6610     2.0070 hn         1 YU0       0.459000
     47 H1         -20.0790   -12.7300     1.4570 hn         1 YU0       0.459000
     48 H3         -21.7010   -12.8930     3.9060 ho         1 YU0       0.393000
     49 C02        -23.3880   -12.0270    14.3790 c3         1 YU0      -0.008400
@<TRIPOS>BOND
     1     1     2 1   
     2     1     7 1   
     3     1    15 2   
     4     2     3 ar  
     5     2    19 ar  
     6     3     4 ar  
     7     3    27 1   
     8     4     5 ar  
     9     4    28 1   
    10     5     6 1   
    11     5    18 ar  
    12     6    26 1   
    13     6    29 1   
    14     6    30 1   
    15     7     8 ar  
    16     7    14 ar  
    17     8     9 ar  
    18     8    31 1   
    19     9    10 ar  
    20     9    32 1   
    21    10    13 ar  
    22    10    33 1   
    23    11    34 1   
    24    11    35 1   
    25    11    36 1   
    26    11    49 1   
    27    12    38 1   
    28    12    39 1   
    29    12    40 1   
    30    12    49 1   
    31    13    14 ar  
    32    13    49 1   
    33    14    21 1   
    34    15    16 1   
    35    15    21 1   
    36    16    23 1   
    37    16    24 1   
    38    17    26 1   
    39    17    41 1   
    40    17    42 1   
    41    17    43 1   
    42    18    19 ar  
    43    18    20 1   
    44    19    44 1   
    45    21    45 1   
    46    22    26 3   
    47    22    46 1   
    48    22    47 1   
    49    25    26 1   
    50    25    48 1   
    51    37    49 1   
@<TRIPOS>SUBSTRUCTURE
     1 YU0         1 TEMP              0 ****  ****    0 ROOT
