@<TRIPOS>MOLECULE
YU0
   49    51     1     0     0
SMALL
abcg2


@<TRIPOS>ATOM
      1 C11        -21.5640   -11.7060     9.9440 cc         1 YU0      -0.148400
      2 C12        -20.9530   -11.9210     8.6300 ca         1 YU0       0.072200
      3 C13        -19.9790   -11.0600     8.1200 ca         1 YU0      -0.073000
      4 C14        -19.4020   -11.2930     6.8850 ca         1 YU0      -0.106000
      5 C15        -19.7570   -12.3900     6.0970 ca         1 YU0      -0.109300
      6 C16        -19.2110   -12.6140     4.7330 c3         1 YU0      -0.162100
      7 C24        -21.6520   -12.7030    10.9740 ca         1 YU0      -0.081800
      8 C25        -21.2570   -14.0440    11.0670 ca         1 YU0      -0.074000
      9 C26        -21.4920   -14.7180    12.2460 ca         1 YU0      -0.159000
     10 C27        -22.1050   -14.0850    13.3430 ca         1 YU0      -0.117000
     11 C01        -22.8740   -12.6460    15.8120 c3         1 YU0      -0.083100
     12 C03        -24.6950   -11.9930    14.2120 c3         1 YU0      -0.083100
     13 C04        -22.4980   -12.7590    13.3030 ca         1 YU0      -0.089300
     14 C05        -22.2560   -12.0910    12.0930 ca         1 YU0      -0.064200
     15 C07        -22.1130   -10.5530    10.4660 cd         1 YU0      -0.062300
     16 C08        -22.4060    -9.1850     9.8880 c          1 YU0       0.725200
     17 C18        -20.5700   -10.4780     3.7000 c3         1 YU0      -0.031100
     18 C21        -20.7100   -13.2420     6.6390 ca         1 YU0       0.125000
     19 C23        -21.3040   -13.0360     7.8670 ca         1 YU0      -0.150000
     20 F22        -21.0710   -14.3290     5.9310 f          1 YU0      -0.212000
     21 N06        -22.5140   -10.8010    11.7480 na         1 YU0      -0.195700
     22 N19        -19.6240   -12.6130     2.1700 n8         1 YU0      -1.115000
     23 O09        -22.8270    -8.3520    10.7150 o          1 YU0      -0.702500
     24 O10        -22.2240    -9.0310     8.6700 o          1 YU0      -0.702500
     25 O20        -21.9540   -11.8910     2.0550 oh         1 YU0      -0.790700
     26 S17        -20.6430   -12.2710     3.4860 s6         1 YU0       0.448700
     27 H131       -19.6640   -10.2060     8.7020 ha         1 YU0       0.133000
     28 H141       -18.6460   -10.6110     6.5140 ha         1 YU0       0.100000
     29 H162       -18.9260   -13.6570     4.5780 h1         1 YU0       0.054700
     30 H161       -18.3420   -11.9840     4.5350 h1         1 YU0       0.054700
     31 H251       -20.7750   -14.5430    10.2360 ha         1 YU0       0.107000
     32 H261       -21.1980   -15.7550    12.3390 ha         1 YU0       0.091000
     33 H271       -22.2640   -14.6630    14.2440 ha         1 YU0       0.091000
     34 H012       -23.3000   -12.0210    16.5980 hc         1 YU0       0.029867
     35 H013       -23.3020   -13.6430    15.9250 hc         1 YU0       0.029867
     36 H011       -21.8000   -12.7180    15.9880 hc         1 YU0       0.029867
     37 H021       -22.8130   -11.0130    14.4590 hc         1 YU0       0.048700
     38 H033       -25.1890   -11.4260    15.0030 hc         1 YU0       0.029867
     39 H032       -24.9450   -11.5230    13.2600 hc         1 YU0       0.029867
     40 H031       -25.1160   -13.0010    14.2070 hc         1 YU0       0.029867
     41 H182       -21.5530   -10.1320     4.0080 h1         1 YU0       0.095033
     42 H183       -19.8270   -10.1930     4.4370 h1         1 YU0       0.095033
     43 H181       -20.3200   -10.0510     2.7330 h1         1 YU0       0.095033
     44 H231       -22.0550   -13.7320     8.2190 ha         1 YU0       0.126000
     45 H061       -22.9560   -10.0930    12.3120 hn         1 YU0       0.369000
     46 H191       -18.9290   -13.3040     2.4270 hn         1 YU0       0.459000
     47 H1         -20.2090   -12.9630     1.4220 hn         1 YU0       0.459000
     48 H3         -22.7700   -12.2030     2.4600 ho         1 YU0       0.393000
     49 C02        -23.1820   -12.0450    14.4460 c3         1 YU0      -0.008400
@<TRIPOS>BOND
     1     1     2 1   
     2     1     7 1   
     3     1    15 2   
     4     2     3 ar  
     5     2    19 ar  
     6     3     4 ar  
     7     3    27 1   
     8     4     5 ar  
     9     4    28 1   
    10     5     6 1   
    11     5    18 ar  
    12     6    26 1   
    13     6    29 1   
    14     6    30 1   
    15     7     8 ar  
    16     7    14 ar  
    17     8     9 ar  
    18     8    31 1   
    19     9    10 ar  
    20     9    32 1   
    21    10    13 ar  
    22    10    33 1   
    23    11    34 1   
    24    11    35 1   
    25    11    36 1   
    26    11    49 1   
    27    12    38 1   
    28    12    39 1   
    29    12    40 1   
    30    12    49 1   
    31    13    14 ar  
    32    13    49 1   
    33    14    21 1   
    34    15    16 1   
    35    15    21 1   
    36    16    23 1   
    37    16    24 1   
    38    17    26 1   
    39    17    41 1   
    40    17    42 1   
    41    17    43 1   
    42    18    19 ar  
    43    18    20 1   
    44    19    44 1   
    45    21    45 1   
    46    22    26 3   
    47    22    46 1   
    48    22    47 1   
    49    25    26 1   
    50    25    48 1   
    51    37    49 1   
@<TRIPOS>SUBSTRUCTURE
     1 YU0         1 TEMP              0 ****  ****    0 ROOT
