@<TRIPOS>MOLECULE
YU2
   42    44     1     0     0
SMALL
No Charge or Current Charge


@<TRIPOS>ATOM
      1 C10         12.8930    14.1580    16.9660 ca         1 YU2      -0.001000
      2 C13          9.9330    11.5970    21.1730 ca         1 YU2      -0.110300
      3 C15          8.1730    13.0750    21.9660 ca         1 YU2      -0.122000
      4 C16          8.6420    12.9340    23.2820 ca         1 YU2      -0.098000
      5 C17          9.7650    12.1230    23.5700 ca         1 YU2      -0.066500
      6 C18         10.2520    11.9820    24.9580 cc         1 YU2       0.257500
      7 C22         11.4840    11.3330    26.7160 cd         1 YU2      -0.184600
      8 C23         12.5200    10.6830    27.5690 c          1 YU2       0.740600
      9 C26         11.3550    11.2060    25.3610 cc         1 YU2      -0.220000
     10 C27         10.4020    11.4590    22.4940 ca         1 YU2      -0.095000
     11 C12         10.6370    10.8760    20.0320 c3         1 YU2       0.161300
     12 C14          8.8160    12.4100    20.9130 ca         1 YU2      -0.120000
     13 C2          11.7030    12.5120    18.4380 c          1 YU2       0.622700
     14 C3          12.9620    13.2830    18.0780 ca         1 YU2      -0.184600
     15 C4          14.1980    13.1870    18.7770 ca         1 YU2       0.192100
     16 C6          15.3080    13.9450    18.3640 ca         1 YU2      -0.213000
     17 C7          15.2180    14.8060    17.2610 ca         1 YU2      -0.025000
     18 C8          14.0090    14.9100    16.5640 ca         1 YU2      -0.072900
     19 N11         11.7550    11.6620    19.5150 ns         1 YU2      -0.493900
     20 N19          9.6770    12.5920    25.9810 nd         1 YU2      -0.579800
     21 N20         10.4380    12.1930    27.0750 na         1 YU2       0.160800
     22 O1          10.6700    12.6370    17.7920 o          1 YU2      -0.601100
     23 O24         13.3460     9.9600    27.0300 o          1 YU2      -0.712000
     24 O25         12.5110    10.8900    28.7730 o          1 YU2      -0.712000
     25 O5          14.3660    12.3730    19.8590 oh         1 YU2      -0.536100
     26 Br9         13.8760    16.0810    15.0580 br         1 YU2      -0.109100
     27 H31         11.9680    14.2630    16.4030 ha         1 YU2       0.150000
     28 H36          7.3090    13.7040    21.7630 ha         1 YU2       0.097000
     29 H37          8.1240    13.4610    24.0810 ha         1 YU2       0.126000
     30 H38          9.2310    13.3350    28.3880 h1         1 YU2       0.048367
     31 H40          9.8770    11.8170    29.0740 h1         1 YU2       0.048367
     32 H39         10.9560    13.2270    28.8400 h1         1 YU2       0.048367
     33 H42         11.9890    10.6130    24.7130 ha         1 YU2       0.140000
     34 H43         11.2680    10.8290    22.6710 ha         1 YU2       0.122000
     35 H33          9.9240    10.6630    19.2230 h1         1 YU2       0.046700
     36 H34         11.0250     9.9140    20.3890 h1         1 YU2       0.046700
     37 H35          8.4490    12.5270    19.8960 ha         1 YU2       0.095000
     38 H29         16.2530    13.8730    18.8970 ha         1 YU2       0.124000
     39 H30         16.0830    15.3890    16.9480 ha         1 YU2       0.126000
     40 H32         12.6440    11.6220    19.9990 hn         1 YU2       0.327500
     41 H28         15.2900    12.4680    20.1750 ho         1 YU2       0.486000
     42 C21         10.1040    12.6730    28.4280 c3         1 YU2       0.091900
@<TRIPOS>BOND
     1     1    14 ar  
     2     1    18 ar  
     3     1    27 1   
     4     2    10 ar  
     5     2    11 1   
     6     2    12 ar  
     7     3     4 ar  
     8     3    12 ar  
     9     3    28 1   
    10     4     5 ar  
    11     4    29 1   
    12     5     6 1   
    13     5    10 ar  
    14     6     9 1   
    15     6    20 2   
    16     7     8 1   
    17     7     9 2   
    18     7    21 1   
    19     8    23 1   
    20     8    24 1   
    21     9    33 1   
    22    10    34 1   
    23    11    19 1   
    24    11    35 1   
    25    11    36 1   
    26    12    37 1   
    27    13    14 1   
    28    13    19 1   
    29    13    22 2   
    30    14    15 ar  
    31    15    16 ar  
    32    15    25 1   
    33    16    17 ar  
    34    16    38 1   
    35    17    18 ar  
    36    17    39 1   
    37    18    26 1   
    38    19    40 1   
    39    20    21 1   
    40    21    42 1   
    41    25    41 1   
    42    30    42 1   
    43    31    42 1   
    44    32    42 1   
@<TRIPOS>SUBSTRUCTURE
     1 YU2         1 TEMP              0 ****  ****    0 ROOT
