@<TRIPOS>MOLECULE
YU2
   42    44     1     0     0
SMALL
abcg2


@<TRIPOS>ATOM
      1 C10         13.2360    14.4450    18.3680 ca         1 YU2      -0.001000
      2 C13          9.3070    11.4250    20.7420 ca         1 YU2      -0.110300
      3 C15          7.3630    11.8830    22.0860 ca         1 YU2      -0.122000
      4 C16          8.1610    12.0610    23.2050 ca         1 YU2      -0.098000
      5 C17          9.5470    11.9200    23.1080 ca         1 YU2      -0.066500
      6 C18         10.4180    12.1190    24.2680 cc         1 YU2       0.257500
      7 C22         12.1360    12.3280    25.6510 cd         1 YU2      -0.184600
      8 C23         13.5070    12.3910    26.2860 c          1 YU2       0.740600
      9 C26         11.8180    12.0460    24.3390 cc         1 YU2      -0.220000
     10 C27         10.0990    11.5940    21.8690 ca         1 YU2      -0.095000
     11 C12          9.9170    11.0530    19.4090 c3         1 YU2       0.161300
     12 C14          7.9290    11.5720    20.8570 ca         1 YU2      -0.120000
     13 C2          11.5360    12.8380    19.1070 c          1 YU2       0.622700
     14 C3          12.9760    13.2560    19.0490 ca         1 YU2      -0.184600
     15 C4          14.0430    12.5860    19.6640 ca         1 YU2       0.192100
     16 C6          15.3340    13.1020    19.5620 ca         1 YU2      -0.213000
     17 C7          15.5810    14.2690    18.8660 ca         1 YU2      -0.025000
     18 C8          14.5210    14.9410    18.2720 ca         1 YU2      -0.072900
     19 N11         11.2670    11.5290    19.2340 ns         1 YU2      -0.493900
     20 N19          9.9170    12.4220    25.4600 nd         1 YU2      -0.579800
     21 N20         10.9530    12.5450    26.2770 na         1 YU2       0.160800
     22 O1          10.6500    13.6750    19.0060 o          1 YU2      -0.601100
     23 O24         14.4470    12.1180    25.5200 o          1 YU2      -0.712000
     24 O25         13.5630    12.7020    27.4890 o          1 YU2      -0.712000
     25 O5          13.7950    11.4640    20.3600 oh         1 YU2      -0.536100
     26 BR9         14.8350    16.5510    17.3350 br         1 YU2      -0.109100
     27 H31         12.4080    14.9720    17.9150 ha         1 YU2       0.150000
     28 H36          6.2900    12.0010    22.1700 ha         1 YU2       0.097000
     29 H37          7.7090    12.3170    24.1540 ha         1 YU2       0.126000
     30 H38          9.6190    12.9450    27.7820 h1         1 YU2       0.048367
     31 H40         11.0880    12.1190    28.3290 h1         1 YU2       0.048367
     32 H39         11.1450    13.8350    27.9230 h1         1 YU2       0.048367
     33 H42         12.5180    11.8260    23.5500 ha         1 YU2       0.140000
     34 H43         11.1720    11.4820    21.7790 ha         1 YU2       0.122000
     35 H33          9.2800    11.4170    18.6000 h1         1 YU2       0.046700
     36 H34          9.9500     9.9670    19.3120 h1         1 YU2       0.046700
     37 H35          7.2970    11.4530    19.9840 ha         1 YU2       0.095000
     38 H29         16.1580    12.5840    20.0380 ha         1 YU2       0.124000
     39 H30         16.5930    14.6450    18.7990 ha         1 YU2       0.126000
     40 H32         12.0200    10.8690    19.3350 hn         1 YU2       0.327500
     41 H28         14.6070    11.0950    20.7300 ho         1 YU2       0.486000
     42 C21         10.6960    12.8810    27.6620 c3         1 YU2       0.091900
@<TRIPOS>BOND
     1     1    14 ar  
     2     1    18 ar  
     3     1    27 1   
     4     2    10 ar  
     5     2    11 1   
     6     2    12 ar  
     7     3     4 ar  
     8     3    12 ar  
     9     3    28 1   
    10     4     5 ar  
    11     4    29 1   
    12     5     6 1   
    13     5    10 ar  
    14     6     9 1   
    15     6    20 2   
    16     7     8 1   
    17     7     9 2   
    18     7    21 1   
    19     8    23 1   
    20     8    24 1   
    21     9    33 1   
    22    10    34 1   
    23    11    19 1   
    24    11    35 1   
    25    11    36 1   
    26    12    37 1   
    27    13    14 1   
    28    13    19 1   
    29    13    22 2   
    30    14    15 ar  
    31    15    16 ar  
    32    15    25 1   
    33    16    17 ar  
    34    16    38 1   
    35    17    18 ar  
    36    17    39 1   
    37    18    26 1   
    38    19    40 1   
    39    20    21 1   
    40    21    42 1   
    41    25    41 1   
    42    30    42 1   
    43    31    42 1   
    44    32    42 1   
@<TRIPOS>SUBSTRUCTURE
     1 YU2         1 TEMP              0 ****  ****    0 ROOT
