@<TRIPOS>MOLECULE
YU3
   53    56     1     0     0
SMALL
abcg2


@<TRIPOS>ATOM
      1 C13         -1.4880   -10.3880    10.1810 cc         1 YU3      -0.052300
      2 C14         -1.3620    -8.9550     9.7150 c          1 YU3       0.725200
      3 C17         -1.2740   -11.6020     9.5610 cd         1 YU3      -0.159400
      4 C10         -2.5230   -12.6340    12.8170 ca         1 YU3      -0.080300
      5 C11         -2.0870   -11.9530    11.6730 ca         1 YU3      -0.051200
      6 C01         -1.6880   -11.6500    14.9490 c3         1 YU3      -0.086100
      7 C02         -2.9200   -11.8870    14.0760 c3         1 YU3       0.043800
      8 C03         -4.0470   -12.5850    14.7890 cc         1 YU3      -0.174400
      9 C04         -3.9090   -13.2610    15.9630 cd         1 YU3      -0.115000
     10 C05         -4.9970   -13.9260    16.5820 cd         1 YU3      -0.293000
     11 C06         -6.2050   -13.8700    15.9740 cc         1 YU3      -0.048400
     12 C08         -5.3460   -12.5220    14.1460 c          1 YU3       0.546200
     13 C18         -0.7640   -11.8870     8.2170 ca         1 YU3       0.099200
     14 C19         -1.4480   -12.7820     7.3890 ca         1 YU3      -0.132000
     15 C20         -0.9720   -13.0940     6.1280 ca         1 YU3      -0.068000
     16 C21          0.2070   -12.5340     5.6420 ca         1 YU3      -0.165300
     17 C22          0.7050   -12.8540     4.2740 c3         1 YU3      -0.197100
     18 C24          0.4310   -10.1970     3.2910 c3         1 YU3      -0.324100
     19 C27          0.8780   -11.6640     6.4880 ca         1 YU3       0.164000
     20 C29          0.4240   -11.3310     7.7460 ca         1 YU3      -0.108000
     21 C30         -1.6540   -12.6160    10.5040 ca         1 YU3      -0.079800
     22 C31         -1.6410   -14.0160    10.4790 ca         1 YU3      -0.075000
     23 C32         -2.0630   -14.6980    11.6000 ca         1 YU3      -0.156000
     24 C33         -2.4990   -14.0150    12.7480 ca         1 YU3      -0.117000
     25 F28          2.0320   -11.1180     6.0630 f          1 YU3      -0.200000
     26 N07         -6.3510   -13.1910    14.8120 ns         1 YU3      -0.370100
     27 N12         -1.9710   -10.6180    11.4370 na         1 YU3      -0.191700
     28 O09         -5.5840   -11.9300    13.0970 o          1 YU3      -0.536000
     29 O15         -0.9830    -8.7680     8.5480 o          1 YU3      -0.701000
     30 O16         -1.6750    -8.1020    10.5690 o          1 YU3      -0.701000
     31 O25          0.4210   -12.3070     1.7030 o          1 YU3      -0.536000
     32 O26         -1.5520   -11.9290     3.2040 o          1 YU3      -0.536000
     33 S23         -0.1070   -11.8670     2.9940 s6         1 YU3       1.059000
     34 H013        -1.9430   -11.0880    15.8480 hc         1 YU3       0.035367
     35 H012        -1.2200   -12.5880    15.2520 hc         1 YU3       0.035367
     36 H011        -0.9440   -11.0770    14.3960 hc         1 YU3       0.035367
     37 H021        -3.3040   -10.9050    13.7790 hc         1 YU3       0.073700
     38 H041        -2.9410   -13.3040    16.4470 ha         1 YU3       0.185000
     39 H051        -4.8730   -14.4640    17.5090 ha         1 YU3       0.190000
     40 H061        -7.0950   -14.3440    16.3630 h4         1 YU3       0.189000
     41 H191        -2.3730   -13.2270     7.7300 ha         1 YU3       0.122000
     42 H201        -1.5210   -13.7860     5.5040 ha         1 YU3       0.109000
     43 H221         0.4690   -13.8830     3.9920 h1         1 YU3       0.095700
     44 H222         1.7790   -12.7100     4.1480 h1         1 YU3       0.095700
     45 H243         0.0750    -9.8570     4.2600 h1         1 YU3       0.106700
     46 H242         1.5160   -10.1450     3.2370 h1         1 YU3       0.106700
     47 H241        -0.0090    -9.5840     2.5050 h1         1 YU3       0.106700
     48 H291         0.9970   -10.6510     8.3600 ha         1 YU3       0.151000
     49 H311        -1.3030   -14.5540     9.6020 ha         1 YU3       0.105000
     50 H321        -2.0610   -15.7800    11.6030 ha         1 YU3       0.091000
     51 H331        -2.8240   -14.5920    13.6050 ha         1 YU3       0.091000
     52 H071        -7.2670   -13.1600    14.3840 hn         1 YU3       0.320500
     53 H121        -2.2270    -9.8630    12.0530 hn         1 YU3       0.371000
@<TRIPOS>BOND
     1     1     2 1   
     2     1     3 2   
     3     1    27 1   
     4     2    29 1   
     5     2    30 1   
     6     3    13 1   
     7     3    21 1   
     8     4     5 ar  
     9     4     7 1   
    10     4    24 ar  
    11     5    21 ar  
    12     5    27 1   
    13     6     7 1   
    14     6    34 1   
    15     6    35 1   
    16     6    36 1   
    17     7     8 1   
    18     7    37 1   
    19     8     9 2   
    20     8    12 1   
    21     9    10 1   
    22     9    38 1   
    23    10    11 2   
    24    10    39 1   
    25    11    26 1   
    26    11    40 1   
    27    12    26 1   
    28    12    28 2   
    29    13    14 ar  
    30    13    20 ar  
    31    14    15 ar  
    32    14    41 1   
    33    15    16 ar  
    34    15    42 1   
    35    16    17 1   
    36    16    19 ar  
    37    17    33 1   
    38    17    43 1   
    39    17    44 1   
    40    18    33 1   
    41    18    45 1   
    42    18    46 1   
    43    18    47 1   
    44    19    20 ar  
    45    19    25 1   
    46    20    48 1   
    47    21    22 ar  
    48    22    23 ar  
    49    22    49 1   
    50    23    24 ar  
    51    23    50 1   
    52    24    51 1   
    53    26    52 1   
    54    27    53 1   
    55    31    33 2   
    56    32    33 2   
@<TRIPOS>SUBSTRUCTURE
     1 YU3         1 TEMP              0 ****  ****    0 ROOT
