@<TRIPOS>MOLECULE
YU3
   53    56     1     0     0
SMALL
No Charge or Current Charge


@<TRIPOS>ATOM
      1 C13         -2.1010   -10.6900    10.3120 cc         1 YU3      -0.052300
      2 C14         -2.5470    -9.4220     9.6450 c          1 YU3       0.725200
      3 C17         -1.5330   -11.8390     9.7330 cd         1 YU3      -0.159400
      4 C10         -1.7100   -12.9790    13.1650 ca         1 YU3      -0.080300
      5 C11         -1.7740   -12.2970    11.9330 ca         1 YU3      -0.051200
      6 C01         -1.5730   -12.8390    15.7490 c3         1 YU3      -0.086100
      7 C02         -2.2330   -12.3150    14.4480 c3         1 YU3       0.043800
      8 C03         -3.7520   -12.3900    14.5140 cc         1 YU3      -0.174400
      9 C04         -4.4410   -13.5590    14.8070 cd         1 YU3      -0.115000
     10 C05         -5.8810   -13.5510    14.8480 cd         1 YU3      -0.293000
     11 C06         -6.5610   -12.3820    14.5870 cc         1 YU3      -0.048400
     12 C08         -4.4900   -11.1290    14.2050 c          1 YU3       0.546200
     13 C18         -0.9400   -11.9800     8.3840 ca         1 YU3       0.099200
     14 C19         -1.0760   -13.1870     7.6680 ca         1 YU3      -0.132000
     15 C20         -0.4980   -13.3440     6.3970 ca         1 YU3      -0.068000
     16 C21          0.2360   -12.2950     5.8150 ca         1 YU3      -0.165300
     17 C22          0.8620   -12.4820     4.4280 c3         1 YU3      -0.197100
     18 C24         -0.8250   -10.4650     3.2900 c3         1 YU3      -0.324100
     19 C27          0.3830   -11.0900     6.5320 ca         1 YU3       0.164000
     20 C29         -0.1970   -10.9350     7.8000 ca         1 YU3      -0.108000
     21 C30         -1.3170   -12.8440    10.7650 ca         1 YU3      -0.079800
     22 C31         -0.7290   -14.1190    10.7360 ca         1 YU3      -0.075000
     23 C32         -0.6630   -14.8420    11.9430 ca         1 YU3      -0.156000
     24 C33         -1.1540   -14.2830    13.1450 ca         1 YU3      -0.117000
     25 F28          1.0960   -10.0690     6.0070 f          1 YU3      -0.200000
     26 N07         -5.8550   -11.2340    14.2780 ns         1 YU3      -0.370100
     27 N12         -2.2510   -11.0240    11.6750 na         1 YU3      -0.191700
     28 O09         -3.9680   -10.0670    13.8950 o          1 YU3      -0.536000
     29 O15         -2.5310    -9.3180     8.4270 o          1 YU3      -0.701000
     30 O16         -2.9830    -8.5340    10.3650 o          1 YU3      -0.701000
     31 O25          0.5690   -12.1390     1.8020 o          1 YU3      -0.536000
     32 O26         -1.4010   -13.0360     3.1200 o          1 YU3      -0.536000
     33 S23         -0.2410   -12.1390     3.0280 s6         1 YU3       1.059000
     34 H013        -1.8990   -12.2380    16.6060 hc         1 YU3       0.035367
     35 H012        -1.8370   -13.8820    15.9540 hc         1 YU3       0.035367
     36 H011        -0.4810   -12.7660    15.6820 hc         1 YU3       0.035367
     37 H021        -1.9140   -11.2660    14.4120 hc         1 YU3       0.073700
     38 H041        -3.9000   -14.4820    15.0030 ha         1 YU3       0.185000
     39 H051        -6.4310   -14.4610    15.0810 ha         1 YU3       0.190000
     40 H061        -7.6410   -12.2510    14.5890 h4         1 YU3       0.189000
     41 H191        -1.6640   -14.0000     8.0850 ha         1 YU3       0.122000
     42 H201        -0.6290   -14.2830     5.8620 ha         1 YU3       0.109000
     43 H221         1.1970   -13.5170     4.2960 h1         1 YU3       0.095700
     44 H222         1.7270   -11.8230     4.2980 h1         1 YU3       0.095700
     45 H243        -1.3820   -10.4510     4.2330 h1         1 YU3       0.106700
     46 H242         0.0500    -9.8100     3.3370 h1         1 YU3       0.106700
     47 H241        -1.4710   -10.2050     2.4460 h1         1 YU3       0.106700
     48 H291        -0.0410   -10.0070     8.3390 ha         1 YU3       0.151000
     49 H311        -0.3240   -14.5460     9.8240 ha         1 YU3       0.105000
     50 H321        -0.2230   -15.8360    11.9510 ha         1 YU3       0.091000
     51 H331        -1.0870   -14.8740    14.0540 ha         1 YU3       0.091000
     52 H071        -6.3580   -10.3780    14.0740 hn         1 YU3       0.320500
     53 H121        -2.6930   -10.4210    12.3640 hn         1 YU3       0.371000
@<TRIPOS>BOND
     1     1     2 1   
     2     1     3 2   
     3     1    27 1   
     4     2    29 1   
     5     2    30 1   
     6     3    13 1   
     7     3    21 1   
     8     4     5 ar  
     9     4     7 1   
    10     4    24 ar  
    11     5    21 ar  
    12     5    27 1   
    13     6     7 1   
    14     6    34 1   
    15     6    35 1   
    16     6    36 1   
    17     7     8 1   
    18     7    37 1   
    19     8     9 2   
    20     8    12 1   
    21     9    10 1   
    22     9    38 1   
    23    10    11 2   
    24    10    39 1   
    25    11    26 1   
    26    11    40 1   
    27    12    26 1   
    28    12    28 2   
    29    13    14 ar  
    30    13    20 ar  
    31    14    15 ar  
    32    14    41 1   
    33    15    16 ar  
    34    15    42 1   
    35    16    17 1   
    36    16    19 ar  
    37    17    33 1   
    38    17    43 1   
    39    17    44 1   
    40    18    33 1   
    41    18    45 1   
    42    18    46 1   
    43    18    47 1   
    44    19    20 ar  
    45    19    25 1   
    46    20    48 1   
    47    21    22 ar  
    48    22    23 ar  
    49    22    49 1   
    50    23    24 ar  
    51    23    50 1   
    52    24    51 1   
    53    26    52 1   
    54    27    53 1   
    55    31    33 2   
    56    32    33 2   
@<TRIPOS>SUBSTRUCTURE
     1 YU3         1 TEMP              0 ****  ****    0 ROOT
