@<TRIPOS>MOLECULE
YU4
   51    54     1     0     0
SMALL
No Charge or Current Charge


@<TRIPOS>ATOM
      1 C7           9.2610    -7.2250    20.4910 cc         1 YU4       0.020600
      2 C4           9.0090    -9.5900    16.9080 ca         1 YU4      -0.160000
      3 C5           7.7060    -9.9660    16.5500 ca         1 YU4       0.349900
      4 C6           6.8810    -9.2920    18.6090 ca         1 YU4       0.370900
      5 C1           7.6570    -8.7580    21.5250 c          1 YU4       0.565200
      6 C2           8.1670    -8.9240    19.0870 ca         1 YU4      -0.043400
      7 C10         11.4470    -5.0790    20.5050 c          1 YU4       0.593200
      8 C14          7.9970    -8.0820    22.7950 cc         1 YU4      -0.170400
      9 C15          7.3880    -8.4740    24.0660 ca         1 YU4       0.012200
     10 C16          7.5100    -9.7970    24.5310 ca         1 YU4      -0.168000
     11 C11         10.8230    -4.8790    22.8910 cc         1 YU4       0.005600
     12 C18          7.4510   -12.5980    25.4730 c3         1 YU4       0.170600
     13 C23          6.6760    -7.5350    24.8350 ca         1 YU4      -0.135000
     14 C19          6.3910   -12.9590    24.4000 c3         1 YU4      -0.194400
     15 C20          5.0280   -13.4310    24.9520 c3         1 YU4       0.307000
     16 C21          6.2150    -9.2360    26.5110 ca         1 YU4      -0.126000
     17 C12         12.5130    -3.3980    21.9240 c          1 YU4       0.616000
     18 C13          8.9320    -7.0690    22.8890 cd         1 YU4      -0.072000
     19 C17          6.9150   -10.1850    25.7510 ca         1 YU4       0.144100
     20 C22          6.0950    -7.9160    26.0540 ca         1 YU4       0.149000
     21 C3           9.2460    -9.0450    18.1810 ca         1 YU4      -0.060000
     22 C8           9.6080    -6.6140    21.6910 cd         1 YU4      -0.141000
     23 C9          10.6170    -5.5380    21.6830 cd         1 YU4      -0.211200
     24 F1           4.2360   -13.8570    23.9430 f          1 YU4      -0.115667
     25 F2           5.1800   -14.4580    25.8180 f          1 YU4      -0.115667
     26 F3           4.3750   -12.4340    25.5910 f          1 YU4      -0.115667
     27 N1           8.3280    -8.2690    20.3770 n          1 YU4      -0.189200
     28 N2           6.6500    -9.8120    17.3780 nb         1 YU4      -0.654000
     29 N3          12.3020    -4.0510    20.7620 ns         1 YU4      -0.469500
     30 N4          11.7530    -3.8510    22.9540 ns         1 YU4      -0.513600
     31 O1           6.8670    -9.6930    21.4750 o          1 YU4      -0.536000
     32 O3          13.3100    -2.4890    22.0420 o          1 YU4      -0.541000
     33 O4           6.9960   -11.4710    26.2500 os         1 YU4      -0.338100
     34 Cl1          5.2080    -6.7350    27.0080 cl         1 YU4      -0.197000
     35 H5           9.6230    -6.9370    19.5180 h4         1 YU4       0.224000
     36 H2           9.8230    -9.7200    16.2010 ha         1 YU4       0.130000
     37 H3           7.4990   -10.3890    15.5680 h4         1 YU4       0.026100
     38 H4           5.9920    -9.1390    19.2190 h4         1 YU4       0.037100
     39 H10          8.0730   -10.5060    23.9320 ha         1 YU4       0.130000
     40 H7          10.3310    -5.0360    23.8440 h4         1 YU4       0.210000
     41 H12          7.6000   -13.4650    26.1300 h1         1 YU4       0.066700
     42 H11          8.4190   -12.3880    25.0000 h1         1 YU4       0.066700
     43 H16          6.5680    -6.5110    24.4860 ha         1 YU4       0.131000
     44 H13          6.2270   -12.1100    23.7280 hc         1 YU4       0.094700
     45 H14          6.8030   -13.7630    23.7780 hc         1 YU4       0.094700
     46 H15          5.7610    -9.5270    27.4530 ha         1 YU4       0.148000
     47 H9           9.1420    -6.6650    23.8710 ha         1 YU4       0.187000
     48 H1          10.2590    -8.7630    18.4610 ha         1 YU4       0.128000
     49 H6          12.8570    -3.7400    19.9820 hn         1 YU4       0.347500
     50 H8          11.9120    -3.3570    23.8290 hn         1 YU4       0.466000
     51 O2          11.4190    -5.5520    19.3820 o          1 YU4      -0.526000
@<TRIPOS>BOND
     1     1    22 2   
     2     1    27 1   
     3     1    35 1   
     4     2     3 ar  
     5     2    21 ar  
     6     2    36 1   
     7     3    28 ar  
     8     3    37 1   
     9     4     6 ar  
    10     4    28 ar  
    11     4    38 1   
    12     5     8 1   
    13     5    27 1   
    14     5    31 2   
    15     6    21 ar  
    16     6    27 1   
    17     7    23 1   
    18     7    29 1   
    19     7    51 2   
    20     8     9 1   
    21     8    18 2   
    22     9    10 ar  
    23     9    13 ar  
    24    10    19 ar  
    25    10    39 1   
    26    11    23 2   
    27    11    30 1   
    28    11    40 1   
    29    12    14 1   
    30    12    33 1   
    31    12    41 1   
    32    12    42 1   
    33    13    20 ar  
    34    13    43 1   
    35    14    15 1   
    36    14    44 1   
    37    14    45 1   
    38    15    24 1   
    39    15    25 1   
    40    15    26 1   
    41    16    19 ar  
    42    16    20 ar  
    43    16    46 1   
    44    17    29 1   
    45    17    30 1   
    46    17    32 2   
    47    18    22 1   
    48    18    47 1   
    49    19    33 1   
    50    20    34 1   
    51    21    48 1   
    52    22    23 1   
    53    29    49 1   
    54    30    50 1   
@<TRIPOS>SUBSTRUCTURE
     1 YU4         1 TEMP              0 ****  ****    0 ROOT
