@<TRIPOS>MOLECULE
YU4
   51    54     1     0     0
SMALL
abcg2


@<TRIPOS>ATOM
      1 C7           9.4410    -7.2360    20.4670 cc         1 YU4       0.020600
      2 C4           9.1060   -10.5110    17.5090 ca         1 YU4      -0.160000
      3 C5           7.9500   -10.1710    16.8230 ca         1 YU4       0.349900
      4 C6           7.3010    -8.7120    18.4440 ca         1 YU4       0.370900
      5 C1           7.9810    -8.8530    21.5640 c          1 YU4       0.565200
      6 C2           8.4270    -8.9930    19.2030 ca         1 YU4      -0.043400
      7 C10         10.4870    -4.3530    20.6160 c          1 YU4       0.593200
      8 C14          8.2150    -8.1170    22.7900 cc         1 YU4      -0.170400
      9 C15          7.5470    -8.5500    24.0340 ca         1 YU4       0.012200
     10 C16          7.5450    -9.8920    24.4160 ca         1 YU4      -0.168000
     11 C11         11.3780    -5.1480    22.7030 cc         1 YU4       0.005600
     12 C18          7.2050   -12.6240    25.2270 c3         1 YU4       0.170600
     13 C23          6.9550    -7.5930    24.8540 ca         1 YU4      -0.135000
     14 C19          6.0890   -12.8970    24.2270 c3         1 YU4      -0.194400
     15 C20          4.7620   -13.2380    24.8530 c3         1 YU4       0.307000
     16 C21          6.3750    -9.3180    26.4490 ca         1 YU4      -0.126000
     17 C12         12.1500    -3.0260    21.8890 c          1 YU4       0.616000
     18 C13          9.0170    -7.0160    22.7820 cd         1 YU4      -0.072000
     19 C17          6.9620   -10.2730    25.6180 ca         1 YU4       0.144100
     20 C22          6.3870    -7.9970    26.0520 ca         1 YU4       0.149000
     21 C3           9.3510    -9.9090    18.7340 ca         1 YU4      -0.060000
     22 C8           9.6660    -6.5410    21.6150 cd         1 YU4      -0.141000
     23 C9          10.5420    -5.3630    21.6640 cd         1 YU4      -0.211200
     24 F1           3.8800   -13.6650    23.9350 f          1 YU4      -0.115667
     25 F2           4.8680   -14.2150    25.7680 f          1 YU4      -0.115667
     26 F3           4.1900   -12.1950    25.4720 f          1 YU4      -0.115667
     27 N1           8.6300    -8.3240    20.4470 n          1 YU4      -0.189200
     28 N2           7.0640    -9.2900    17.2760 nb         1 YU4      -0.654000
     29 N3          11.3100    -3.2600    20.8290 ns         1 YU4      -0.469500
     30 N4          12.1460    -4.0360    22.8150 ns         1 YU4      -0.513600
     31 O1           7.2770    -9.8440    21.4430 o          1 YU4      -0.536000
     32 O3          12.8290    -2.0280    21.9940 o          1 YU4      -0.541000
     33 O4           6.9410   -11.5350    26.0900 os         1 YU4      -0.338100
     34 CL1          5.6500    -6.8080    27.0750 cl         1 YU4      -0.197000
     35 H5           9.8900    -6.9750    19.5210 h4         1 YU4       0.224000
     36 H2           9.7970   -11.2310    17.0940 ha         1 YU4       0.130000
     37 H3           7.7310   -10.6280    15.8650 h4         1 YU4       0.026100
     38 H4           6.5720    -7.9910    18.8000 h4         1 YU4       0.037100
     39 H10          8.0230   -10.6180    23.7750 ha         1 YU4       0.130000
     40 H7          11.4880    -5.8570    23.5120 h4         1 YU4       0.210000
     41 H12          7.3480   -13.4800    25.8840 h1         1 YU4       0.066700
     42 H11          8.1420   -12.4930    24.6810 h1         1 YU4       0.066700
     43 H16          6.9240    -6.5530    24.5570 ha         1 YU4       0.131000
     44 H13          5.9470   -12.0580    23.5410 hc         1 YU4       0.094700
     45 H14          6.4020   -13.7470    23.6160 hc         1 YU4       0.094700
     46 H15          5.9200    -9.6190    27.3830 ha         1 YU4       0.148000
     47 H9           9.1680    -6.4770    23.7110 ha         1 YU4       0.187000
     48 H1          10.2370   -10.1450    19.3090 ha         1 YU4       0.128000
     49 H6          11.2870    -2.5350    20.1210 hn         1 YU4       0.347500
     50 H8          12.7520    -3.9320    23.6160 hn         1 YU4       0.466000
     51 O2           9.7920    -4.4090    19.6200 o          1 YU4      -0.526000
@<TRIPOS>BOND
     1     1    22 2   
     2     1    27 1   
     3     1    35 1   
     4     2     3 ar  
     5     2    21 ar  
     6     2    36 1   
     7     3    28 ar  
     8     3    37 1   
     9     4     6 ar  
    10     4    28 ar  
    11     4    38 1   
    12     5     8 1   
    13     5    27 1   
    14     5    31 2   
    15     6    21 ar  
    16     6    27 1   
    17     7    23 1   
    18     7    29 1   
    19     7    51 2   
    20     8     9 1   
    21     8    18 2   
    22     9    10 ar  
    23     9    13 ar  
    24    10    19 ar  
    25    10    39 1   
    26    11    23 2   
    27    11    30 1   
    28    11    40 1   
    29    12    14 1   
    30    12    33 1   
    31    12    41 1   
    32    12    42 1   
    33    13    20 ar  
    34    13    43 1   
    35    14    15 1   
    36    14    44 1   
    37    14    45 1   
    38    15    24 1   
    39    15    25 1   
    40    15    26 1   
    41    16    19 ar  
    42    16    20 ar  
    43    16    46 1   
    44    17    29 1   
    45    17    30 1   
    46    17    32 2   
    47    18    22 1   
    48    18    47 1   
    49    19    33 1   
    50    20    34 1   
    51    21    48 1   
    52    22    23 1   
    53    29    49 1   
    54    30    50 1   
@<TRIPOS>SUBSTRUCTURE
     1 YU4         1 TEMP              0 ****  ****    0 ROOT
