@<TRIPOS>MOLECULE
YU6
   60    64     1     0     0
SMALL
abcg2


@<TRIPOS>ATOM
      1 C10          0.0200   -22.5710   -23.0680 ca         1 YU6      -0.096500
      2 C11         -1.1390   -22.8650   -22.3650 ca         1 YU6      -0.117000
      3 C13          0.0320   -24.5610   -21.1370 ca         1 YU6      -0.117000
      4 C15          5.0630   -17.1620   -22.3140 cc         1 YU6       0.375800
      5 C17          6.4790   -17.0410   -20.6390 ca         1 YU6      -0.035200
      6 C18          5.5620   -15.9760   -20.6180 ca         1 YU6       0.029400
      7 C20          5.6170   -15.0270   -19.6040 ca         1 YU6      -0.050000
      8 C21          6.5950   -15.1660   -18.6270 cp         1 YU6      -0.100000
      9 C22          6.6640   -14.2260   -17.4860 cp         1 YU6       0.017000
     10 C23          6.8310   -12.8480   -17.6180 ca         1 YU6       0.126000
     11 C25          6.8840   -12.0030   -16.5190 ca         1 YU6      -0.114000
     12 C26          6.7720   -12.5090   -15.2290 ca         1 YU6      -0.091300
     13 C27          6.7910   -11.5930   -14.0420 c3         1 YU6      -0.038800
     14 C28          6.6200   -13.8850   -15.0780 ca         1 YU6      -0.114000
     15 C12         -1.1380   -23.8630   -21.3970 ca         1 YU6      -0.115000
     16 C14          1.1930   -24.2620   -21.8410 ca         1 YU6      -0.096500
     17 C29          6.5680   -14.7170   -16.1830 ca         1 YU6      -0.095000
     18 C3           3.9090   -19.7130   -24.7480 c6         1 YU6       0.165800
     19 C30          7.5000   -16.2410   -18.6770 ca         1 YU6      -0.076000
     20 C31          7.4740   -17.2040   -19.6750 ca         1 YU6      -0.131600
     21 C32          8.4590   -18.3580   -19.7270 c          1 YU6       0.723600
     22 C4           3.7440   -21.2160   -24.6350 c6         1 YU6       0.163300
     23 C6           3.0750   -20.9830   -22.3720 c6         1 YU6       0.163300
     24 C7           3.2390   -19.4800   -22.4720 c6         1 YU6       0.165800
     25 C9           1.2000   -23.2690   -22.8150 ca         1 YU6      -0.079300
     26 N16          6.1290   -17.7710   -21.7380 na         1 YU6      -0.264600
     27 N19          4.6890   -16.0840   -21.6780 nd         1 YU6      -0.610100
     28 N2           4.2480   -19.1370   -23.4600 n3         1 YU6      -0.717600
     29 N5           2.7200   -21.5390   -23.6620 n3         1 YU6      -0.728600
     30 O33          8.3090   -19.1580   -20.6770 o          1 YU6      -0.722500
     31 O34          9.3210   -18.4060   -18.8340 o          1 YU6      -0.722500
     32 CL24         7.0320   -12.1330   -19.1890 cl         1 YU6      -0.210000
     33 H47          0.0150   -21.7870   -23.8140 ha         1 YU6       0.118500
     34 H48         -2.0480   -22.3140   -22.5730 ha         1 YU6       0.107000
     35 H50          0.0460   -25.3360   -20.3810 ha         1 YU6       0.107000
     36 H53          4.9030   -14.2140   -19.5700 ha         1 YU6       0.110000
     37 H54          7.0220   -10.9400   -16.6700 ha         1 YU6       0.113000
     38 H56          5.7810   -11.2700   -13.7840 hc         1 YU6       0.034367
     39 H57          7.2060   -12.0880   -13.1650 hc         1 YU6       0.034367
     40 H55          7.3790   -10.6970   -14.2370 hc         1 YU6       0.034367
     41 H58          6.5390   -14.3120   -14.0850 ha         1 YU6       0.105000
     42 H35          5.1050   -17.5010   -24.4000 h1         1 YU6       0.048700
     43 H36          3.5060   -17.1550   -23.7420 h1         1 YU6       0.048700
     44 H49         -2.0420   -24.0900   -20.8480 ha         1 YU6       0.105000
     45 H51          2.1070   -24.8040   -21.6250 ha         1 YU6       0.118500
     46 H59          6.4380   -15.7830   -16.0420 ha         1 YU6       0.129000
     47 H38          2.9810   -19.2800   -25.1560 h1         1 YU6       0.040950
     48 H37          4.7100   -19.4920   -25.4580 h1         1 YU6       0.040950
     49 H60          8.2590   -16.3230   -17.9100 ha         1 YU6       0.130000
     50 H39          3.4530   -21.6150   -25.6100 h1         1 YU6       0.041200
     51 H40          4.7150   -21.6700   -24.3740 h1         1 YU6       0.041200
     52 H42          2.2870   -21.2000   -21.6480 h1         1 YU6       0.041200
     53 H41          4.0060   -21.4290   -21.9810 h1         1 YU6       0.041200
     54 H44          3.5360   -19.0940   -21.4940 h1         1 YU6       0.040950
     55 H43          2.2660   -19.0250   -22.7200 h1         1 YU6       0.040950
     56 H45          2.3250   -23.3220   -24.6240 h1         1 YU6       0.035700
     57 H46          3.2970   -23.5270   -23.1750 h1         1 YU6       0.035700
     58 H52          6.5810   -18.6260   -22.0210 hn         1 YU6       0.400000
     59 C8           2.4500   -22.9600   -23.5980 c3         1 YU6       0.216100
     60 C1           4.4400   -17.7050   -23.5540 c3         1 YU6       0.153500
@<TRIPOS>BOND
     1     1     2 ar  
     2     1    25 ar  
     3     1    33 1   
     4     2    15 ar  
     5     2    34 1   
     6     3    15 ar  
     7     3    16 ar  
     8     3    35 1   
     9     4    26 1   
    10     4    27 2   
    11     4    60 1   
    12     5     6 ar  
    13     5    20 ar  
    14     5    26 1   
    15     6     7 ar  
    16     6    27 1   
    17     7     8 ar  
    18     7    36 1   
    19     8     9 1   
    20     8    19 ar  
    21     9    10 ar  
    22     9    17 ar  
    23    10    11 ar  
    24    10    32 1   
    25    11    12 ar  
    26    11    37 1   
    27    12    13 1   
    28    12    14 ar  
    29    13    38 1   
    30    13    39 1   
    31    13    40 1   
    32    14    17 ar  
    33    14    41 1   
    34    15    44 1   
    35    16    25 ar  
    36    16    45 1   
    37    17    46 1   
    38    18    22 1   
    39    18    28 1   
    40    18    47 1   
    41    18    48 1   
    42    19    20 ar  
    43    19    49 1   
    44    20    21 1   
    45    21    30 1   
    46    21    31 1   
    47    22    29 1   
    48    22    50 1   
    49    22    51 1   
    50    23    24 1   
    51    23    29 1   
    52    23    52 1   
    53    23    53 1   
    54    24    28 1   
    55    24    54 1   
    56    24    55 1   
    57    25    59 1   
    58    26    58 1   
    59    28    60 1   
    60    29    59 1   
    61    42    60 1   
    62    43    60 1   
    63    56    59 1   
    64    57    59 1   
@<TRIPOS>SUBSTRUCTURE
     1 YU6         1 TEMP              0 ****  ****    0 ROOT
