@<TRIPOS>MOLECULE
YU6
   60    64     1     0     0
SMALL
No Charge or Current Charge


@<TRIPOS>ATOM
      1 C10         -0.1910   -23.0960   -23.3890 ca         1 YU6      -0.096500
      2 C11         -1.2470   -23.5150   -22.5610 ca         1 YU6      -0.117000
      3 C13          0.3390   -24.6760   -21.1270 ca         1 YU6      -0.117000
      4 C15          5.0770   -17.1080   -22.1850 cc         1 YU6       0.375800
      5 C17          6.3570   -17.0810   -20.3690 ca         1 YU6      -0.035200
      6 C18          5.6290   -15.9280   -20.4620 ca         1 YU6       0.029400
      7 C20          5.7440   -14.9290   -19.4880 ca         1 YU6      -0.050000
      8 C21          6.6350   -15.1230   -18.3980 cp         1 YU6      -0.100000
      9 C22          6.7770   -14.0910   -17.3250 cp         1 YU6       0.017000
     10 C23          7.0900   -12.7310   -17.6030 ca         1 YU6       0.126000
     11 C25          7.2100   -11.7970   -16.5590 ca         1 YU6      -0.114000
     12 C26          7.0270   -12.1890   -15.2210 ca         1 YU6      -0.091300
     13 C27          7.1550   -11.1710   -14.0980 c3         1 YU6      -0.038800
     14 C28          6.7240   -13.5300   -14.9320 ca         1 YU6      -0.114000
     15 C12         -0.9820   -24.3060   -21.4300 ca         1 YU6      -0.115000
     16 C14          1.3950   -24.2570   -21.9550 ca         1 YU6      -0.096500
     17 C29          6.6050   -14.4680   -15.9710 ca         1 YU6      -0.095000
     18 C3           3.7920   -19.5560   -24.8840 c6         1 YU6       0.165800
     19 C30          7.3710   -16.3420   -18.3250 ca         1 YU6      -0.076000
     20 C31          7.2530   -17.3530   -19.3140 ca         1 YU6      -0.131600
     21 C32          8.0530   -18.6450   -19.2220 c          1 YU6       0.723600
     22 C4           3.5490   -21.0980   -24.9320 c6         1 YU6       0.163300
     23 C6           2.9220   -21.0730   -22.5650 c6         1 YU6       0.163300
     24 C7           3.1690   -19.5310   -22.5180 c6         1 YU6       0.165800
     25 C9           1.1360   -23.4640   -23.0920 ca         1 YU6      -0.079300
     26 N16          6.0150   -17.8280   -21.4540 na         1 YU6      -0.264600
     27 N19          4.8170   -15.9210   -21.5950 nd         1 YU6      -0.610100
     28 N2           4.1870   -19.0850   -23.5210 n3         1 YU6      -0.717600
     29 N5           2.5340   -21.5470   -23.9310 n3         1 YU6      -0.728600
     30 O33          7.9320   -19.4820   -20.1060 o          1 YU6      -0.722500
     31 O34          8.7940   -18.8020   -18.2610 o          1 YU6      -0.722500
     32 Cl24         7.3900   -12.1590   -19.2460 cl         1 YU6      -0.210000
     33 H47         -0.4000   -22.4800   -24.2610 ha         1 YU6       0.118500
     34 H48         -2.2690   -23.2260   -22.7960 ha         1 YU6       0.107000
     35 H50          0.5450   -25.2870   -20.2520 ha         1 YU6       0.107000
     36 H53          5.1500   -14.0220   -19.5660 ha         1 YU6       0.110000
     37 H54          7.4520   -10.7630   -16.7940 ha         1 YU6       0.113000
     38 H56          6.1910   -10.6880   -13.8980 hc         1 YU6       0.034367
     39 H57          7.4940   -11.6410   -13.1680 hc         1 YU6       0.034367
     40 H55          7.8770   -10.3850   -14.3510 hc         1 YU6       0.034367
     41 H58          6.5790   -13.8490   -13.9020 ha         1 YU6       0.105000
     42 H35          5.1340   -17.3420   -24.2910 h1         1 YU6       0.048700
     43 H36          3.5180   -17.0630   -23.6480 h1         1 YU6       0.048700
     44 H49         -1.7990   -24.6300   -20.7890 ha         1 YU6       0.105000
     45 H51          2.4150   -24.5460   -21.7120 ha         1 YU6       0.118500
     46 H59          6.3650   -15.5010   -15.7290 ha         1 YU6       0.129000
     47 H38          2.8720   -19.0470   -25.2080 h1         1 YU6       0.040950
     48 H37          4.5730   -19.3020   -25.6150 h1         1 YU6       0.040950
     49 H60          8.0480   -16.4910   -17.4860 ha         1 YU6       0.130000
     50 H39          3.2270   -21.3700   -25.9480 h1         1 YU6       0.041200
     51 H40          4.5070   -21.6080   -24.7530 h1         1 YU6       0.041200
     52 H42          2.1390   -21.3180   -21.8330 h1         1 YU6       0.041200
     53 H41          3.8400   -21.5830   -22.2340 h1         1 YU6       0.041200
     54 H44          3.4850   -19.2620   -21.5000 h1         1 YU6       0.040950
     55 H43          2.2110   -19.0200   -22.7000 h1         1 YU6       0.040950
     56 H45          2.0280   -23.2900   -25.0250 h1         1 YU6       0.035700
     57 H46          3.1930   -23.5560   -23.7280 h1         1 YU6       0.035700
     58 H52          6.3580   -18.7520   -21.6850 hn         1 YU6       0.400000
     59 C8           2.2800   -23.0050   -23.9940 c3         1 YU6       0.216100
     60 C1           4.4510   -17.6160   -23.4760 c3         1 YU6       0.153500
@<TRIPOS>BOND
     1     1     2 ar  
     2     1    25 ar  
     3     1    33 1   
     4     2    15 ar  
     5     2    34 1   
     6     3    15 ar  
     7     3    16 ar  
     8     3    35 1   
     9     4    26 1   
    10     4    27 2   
    11     4    60 1   
    12     5     6 ar  
    13     5    20 ar  
    14     5    26 1   
    15     6     7 ar  
    16     6    27 1   
    17     7     8 ar  
    18     7    36 1   
    19     8     9 1   
    20     8    19 ar  
    21     9    10 ar  
    22     9    17 ar  
    23    10    11 ar  
    24    10    32 1   
    25    11    12 ar  
    26    11    37 1   
    27    12    13 1   
    28    12    14 ar  
    29    13    38 1   
    30    13    39 1   
    31    13    40 1   
    32    14    17 ar  
    33    14    41 1   
    34    15    44 1   
    35    16    25 ar  
    36    16    45 1   
    37    17    46 1   
    38    18    22 1   
    39    18    28 1   
    40    18    47 1   
    41    18    48 1   
    42    19    20 ar  
    43    19    49 1   
    44    20    21 1   
    45    21    30 1   
    46    21    31 1   
    47    22    29 1   
    48    22    50 1   
    49    22    51 1   
    50    23    24 1   
    51    23    29 1   
    52    23    52 1   
    53    23    53 1   
    54    24    28 1   
    55    24    54 1   
    56    24    55 1   
    57    25    59 1   
    58    26    58 1   
    59    28    60 1   
    60    29    59 1   
    61    42    60 1   
    62    43    60 1   
    63    56    59 1   
    64    57    59 1   
@<TRIPOS>SUBSTRUCTURE
     1 YU6         1 TEMP              0 ****  ****    0 ROOT
