@<TRIPOS>MOLECULE
YU7
   38    40     1     0     0
SMALL
No Charge or Current Charge


@<TRIPOS>ATOM
      1 Cl          -2.9770    -2.3880     0.3430 cl         1 YU7      -0.187000
      2 C10         -3.5810    -0.8070    -0.1500 ca         1 YU7       0.139000
      3 C9          -4.5420    -0.7490    -1.1740 ca         1 YU7      -0.105000
      4 C8          -5.0520     0.4890    -1.5990 ca         1 YU7      -0.088000
      5 C7          -4.5980     1.6740    -0.9980 ca         1 YU7      -0.110000
      6 C6          -3.6370     1.6210     0.0260 ca         1 YU7      -0.089000
      7 C5          -3.1200     0.3830     0.4610 ca         1 YU7      -0.116300
      8 C4          -2.0710     0.3630     1.5700 c3         1 YU7       0.120900
      9 N2          -0.6920     0.4020     1.0580 na         1 YU7       0.040000
     10 C3          -0.0140     1.5570     0.6880 cc         1 YU7      -0.164000
     11 C11          0.1330    -0.7030     0.8980 cc         1 YU7      -0.185000
     12 C12          1.3050    -0.2610     0.3370 cd         1 YU7      -0.049000
     13 C2           1.2500     1.1710     0.2860 cd         1 YU7      -0.216600
     14 C1           2.3260     2.1670    -0.0470 c          1 YU7       0.643700
     15 N1           1.8720     3.4830    -0.0870 ns         1 YU7      -0.393400
     16 O2           2.7970     4.5990    -0.1150 oh         1 YU7      -0.430100
     17 O1           3.5010     1.8910    -0.2470 o          1 YU7      -0.561100
     18 C13          2.4290    -1.1740     0.0250 ca         1 YU7       0.002000
     19 C18          2.5880    -2.3720     0.7570 ca         1 YU7      -0.093000
     20 C17          3.6300    -3.2670     0.4580 ca         1 YU7      -0.111500
     21 C16          4.5160    -2.9890    -0.5940 ca         1 YU7      -0.110000
     22 C15          4.3490    -1.8210    -1.3530 ca         1 YU7      -0.111500
     23 C14          3.3090    -0.9250    -1.0500 ca         1 YU7      -0.093000
     24 H9          -4.8920    -1.6670    -1.6380 ha         1 YU7       0.135000
     25 H8          -5.7960     0.5300    -2.3920 ha         1 YU7       0.123000
     26 H7          -4.9900     2.6350    -1.3260 ha         1 YU7       0.124000
     27 H6          -3.2920     2.5480     0.4810 ha         1 YU7       0.119000
     28 H41C        -2.2170     1.2310     2.2250 h1         1 YU7       0.070700
     29 H42C        -2.1920    -0.5290     2.1960 h1         1 YU7       0.070700
     30 H3          -0.4720     2.5330     0.7910 h4         1 YU7       0.150000
     31 H11         -0.1940    -1.7040     1.1460 h4         1 YU7       0.152000
     32 H1           0.9300     3.6890     0.2340 hn         1 YU7       0.331500
     33 H18          1.9180    -2.6050     1.5800 ha         1 YU7       0.110500
     34 H14          3.1630    -0.0600    -1.6890 ha         1 YU7       0.110500
     35 H17          3.7480    -4.1770     1.0420 ha         1 YU7       0.109500
     36 H16          5.3200    -3.6830    -0.8290 ha         1 YU7       0.109000
     37 H15          5.0170    -1.6150    -2.1860 ha         1 YU7       0.109500
     38 H2           2.4710     5.1520    -0.8650 ho         1 YU7       0.443000
@<TRIPOS>BOND
     1     1     2 1   
     2     2     3 ar  
     3     2     7 ar  
     4     3     4 ar  
     5     3    24 1   
     6     4     5 ar  
     7     4    25 1   
     8     5     6 ar  
     9     5    26 1   
    10     6     7 ar  
    11     6    27 1   
    12     7     8 1   
    13     8     9 1   
    14     8    28 1   
    15     8    29 1   
    16     9    10 1   
    17     9    11 1   
    18    10    13 2   
    19    10    30 1   
    20    11    12 2   
    21    11    31 1   
    22    12    13 1   
    23    12    18 1   
    24    13    14 1   
    25    14    15 1   
    26    14    17 2   
    27    15    16 1   
    28    15    32 1   
    29    16    38 1   
    30    18    19 ar  
    31    18    23 ar  
    32    19    20 ar  
    33    19    33 1   
    34    20    21 ar  
    35    20    35 1   
    36    21    22 ar  
    37    21    36 1   
    38    22    23 ar  
    39    22    37 1   
    40    23    34 1   
@<TRIPOS>SUBSTRUCTURE
     1 YU7         1 TEMP              0 ****  ****    0 ROOT
