@<TRIPOS>MOLECULE
YU7
   38    40     1     0     0
SMALL
abcg2


@<TRIPOS>ATOM
      1 CL          -2.4870    -1.5180    -1.3570 cl         1 YU7      -0.187000
      2 C10         -3.3900    -0.1420    -0.8140 ca         1 YU7       0.139000
      3 C9          -4.3150     0.4260    -1.6740 ca         1 YU7      -0.105000
      4 C8          -5.0530     1.5230    -1.2520 ca         1 YU7      -0.088000
      5 C7          -4.8630     2.0410     0.0210 ca         1 YU7      -0.110000
      6 C6          -3.9300     1.4590     0.8670 ca         1 YU7      -0.089000
      7 C5          -3.1770     0.3600     0.4690 ca         1 YU7      -0.116300
      8 C4          -2.1720    -0.2440     1.4090 c3         1 YU7       0.120900
      9 N2          -0.8080    -0.0580     0.9460 na         1 YU7       0.040000
     10 C3          -0.2840     1.1100     0.5060 cc         1 YU7      -0.164000
     11 C11          0.1530    -1.0210     0.9300 cc         1 YU7      -0.185000
     12 C12          1.3280    -0.4720     0.4780 cd         1 YU7      -0.049000
     13 C2           1.0420     0.8990     0.2000 cd         1 YU7      -0.216600
     14 C1           1.9990     1.9510    -0.1850 c          1 YU7       0.643700
     15 N1           1.4920     2.8390    -1.0690 ns         1 YU7      -0.393400
     16 O2           2.1420     4.0160    -1.2910 oh         1 YU7      -0.430100
     17 O1           3.1430     2.0070     0.2350 o          1 YU7      -0.561100
     18 C13          2.5730    -1.2150     0.2600 ca         1 YU7       0.002000
     19 C18          2.9970    -2.1700     1.1860 ca         1 YU7      -0.093000
     20 C17          4.1530    -2.9080     0.9710 ca         1 YU7      -0.111500
     21 C16          4.9120    -2.6990    -0.1730 ca         1 YU7      -0.110000
     22 C15          4.5000    -1.7510    -1.1010 ca         1 YU7      -0.111500
     23 C14          3.3430    -1.0180    -0.8880 ca         1 YU7      -0.093000
     24 H9          -4.4620     0.0160    -2.6640 ha         1 YU7       0.135000
     25 H8          -5.7760     1.9680    -1.9220 ha         1 YU7       0.123000
     26 H7          -5.4360     2.8960     0.3540 ha         1 YU7       0.124000
     27 H6          -3.7780     1.8630     1.8600 ha         1 YU7       0.119000
     28 H41C        -2.2860     0.2010     2.3980 h1         1 YU7       0.070700
     29 H42C        -2.3370    -1.3160     1.5190 h1         1 YU7       0.070700
     30 H3          -0.8710     2.0150     0.4830 h4         1 YU7       0.150000
     31 H11         -0.0760    -2.0390     1.2010 h4         1 YU7       0.152000
     32 H1           0.5210     2.8310    -1.3490 hn         1 YU7       0.331500
     33 H18          2.4240    -2.3270     2.0920 ha         1 YU7       0.110500
     34 H14          3.0220    -0.3050    -1.6370 ha         1 YU7       0.110500
     35 H17          4.4650    -3.6400     1.7040 ha         1 YU7       0.109500
     36 H16          5.8160    -3.2700    -0.3390 ha         1 YU7       0.109000
     37 H15          5.0800    -1.5860    -2.0010 ha         1 YU7       0.109500
     38 H2           2.6430     3.8970    -2.1080 ho         1 YU7       0.443000
@<TRIPOS>BOND
     1     1     2 1   
     2     2     3 ar  
     3     2     7 ar  
     4     3     4 ar  
     5     3    24 1   
     6     4     5 ar  
     7     4    25 1   
     8     5     6 ar  
     9     5    26 1   
    10     6     7 ar  
    11     6    27 1   
    12     7     8 1   
    13     8     9 1   
    14     8    28 1   
    15     8    29 1   
    16     9    10 1   
    17     9    11 1   
    18    10    13 2   
    19    10    30 1   
    20    11    12 2   
    21    11    31 1   
    22    12    13 1   
    23    12    18 1   
    24    13    14 1   
    25    14    15 1   
    26    14    17 2   
    27    15    16 1   
    28    15    32 1   
    29    16    38 1   
    30    18    19 ar  
    31    18    23 ar  
    32    19    20 ar  
    33    19    33 1   
    34    20    21 ar  
    35    20    35 1   
    36    21    22 ar  
    37    21    36 1   
    38    22    23 ar  
    39    22    37 1   
    40    23    34 1   
@<TRIPOS>SUBSTRUCTURE
     1 YU7         1 TEMP              0 ****  ****    0 ROOT
