@<TRIPOS>MOLECULE
YU8
   64    68     1     0     0
SMALL
No Charge or Current Charge


@<TRIPOS>ATOM
      1 C12         -0.4110   -10.6810     6.0020 ca         1 YU8      -0.166300
      2 C26         -2.7340   -10.4870    12.0280 ca         1 YU8      -0.056200
      3 C28         -5.7850   -11.9020    14.4990 c5         1 YU8       0.079000
      4 C29         -7.2350   -11.3200    14.4260 cy         1 YU8       0.142000
      5 O35         -7.1120   -10.0700    13.7410 os         1 YU8      -0.400100
      6 C01         -3.0760   -10.9390    15.8310 c3         1 YU8      -0.093100
      7 C02         -3.5880   -10.4890    14.4430 c3         1 YU8       0.186000
      8 C03         -2.8640   -11.1560    13.2630 ca         1 YU8      -0.132300
      9 C04         -2.3110   -12.4610    13.3490 ca         1 YU8      -0.109000
     10 C05         -1.6410   -13.0410    12.2480 ca         1 YU8      -0.165000
     11 C06         -1.5140   -12.3340    11.0370 ca         1 YU8      -0.064000
     12 C07         -2.0810   -11.0570    10.9710 ca         1 YU8      -0.083800
     13 C08         -2.1180   -10.1150     9.8960 cc         1 YU8      -0.164400
     14 C09         -1.5540   -10.2830     8.5600 ca         1 YU8       0.104200
     15 C10         -0.4820    -9.4810     8.1260 ca         1 YU8      -0.084000
     16 C11          0.0850    -9.6760     6.8550 ca         1 YU8      -0.090000
     17 C13          0.2160   -10.8790     4.6170 c3         1 YU8      -0.199100
     18 C15         -0.5520    -8.2620     3.7500 c3         1 YU8      -0.330100
     19 C18         -1.4730   -11.4950     6.4500 ca         1 YU8       0.189000
     20 C20         -2.0360   -11.3010     7.7200 ca         1 YU8      -0.161000
     21 C21         -2.8400    -8.9950    10.3270 cd         1 YU8      -0.045300
     22 C22         -3.2120    -7.7700     9.5360 c          1 YU8       0.720200
     23 C30         -8.0720   -11.2000    15.7480 cy         1 YU8      -0.081400
     24 C31         -8.6160   -12.6310    15.4170 cy         1 YU8      -0.085700
     25 C32        -10.0230   -13.0180    15.8960 c3         1 YU8       0.161800
     26 C34         -8.4280   -12.2040    13.9230 cy         1 YU8      -0.081400
     27 C36         -5.8360    -9.6220    13.8060 c          1 YU8       0.692100
     28 F19         -1.9540   -12.4840     5.6640 f          1 YU8      -0.186000
     29 N25         -3.2140    -9.2290    11.6780 na         1 YU8      -0.191700
     30 N27         -5.0520   -10.6380    14.3270 n          1 YU8      -0.441800
     31 N33        -10.1640   -13.1920    17.3530 n8         1 YU8      -0.995200
     32 O16         -2.0060   -10.3970     3.2050 o          1 YU8      -0.530000
     33 O17          0.2380   -10.1270     2.0600 o          1 YU8      -0.530000
     34 O23         -2.9010    -7.6720     8.3580 o          1 YU8      -0.693000
     35 O24         -3.8460    -6.8990    10.1180 o          1 YU8      -0.693000
     36 O37         -5.4510    -8.5210    13.4410 o          1 YU8      -0.528000
     37 S14         -0.5970    -9.9860     3.2610 s6         1 YU8       1.064000
     38 H282        -5.5570   -12.6020    13.6850 h1         1 YU8       0.061700
     39 H281        -5.5560   -12.3900    15.4550 h1         1 YU8       0.061700
     40 H011        -3.5390   -10.3320    16.6180 hc         1 YU8       0.037700
     41 H012        -3.3140   -11.9880    16.0350 hc         1 YU8       0.037700
     42 H013        -1.9890   -10.8100    15.8980 hc         1 YU8       0.037700
     43 H021        -3.3490    -9.4180    14.3940 h1         1 YU8       0.084700
     44 H041        -2.3950   -13.0410    14.2650 ha         1 YU8       0.091000
     45 H051        -1.2200   -14.0400    12.3350 ha         1 YU8       0.094000
     46 H061        -0.9970   -12.7660    10.1840 ha         1 YU8       0.109000
     47 H101        -0.0910    -8.7070     8.7800 ha         1 YU8       0.138000
     48 H111         0.9110    -9.0430     6.5350 ha         1 YU8       0.098000
     49 H131         0.1980   -11.9370     4.3310 h1         1 YU8       0.095700
     50 H132         1.2580   -10.5400     4.6150 h1         1 YU8       0.095700
     51 H151        -1.1310    -8.1630     4.6750 h1         1 YU8       0.104367
     52 H153         0.4950    -7.9850     3.9050 h1         1 YU8       0.104367
     53 H152        -1.0010    -7.6770     2.9400 h1         1 YU8       0.104367
     54 H201        -2.8480   -11.9400     8.0530 ha         1 YU8       0.132000
     55 H301        -7.4940   -11.1090    16.6740 hc         1 YU8       0.068700
     56 H302        -8.8310   -10.4080    15.7370 hc         1 YU8       0.068700
     57 H311        -7.9310   -13.4340    15.7200 hc         1 YU8       0.050700
     58 H322       -10.7270   -12.2400    15.5700 h1         1 YU8       0.031200
     59 H321       -10.3050   -13.9600    15.4040 h1         1 YU8       0.031200
     60 H342        -9.2660   -11.6370    13.4990 hc         1 YU8       0.068700
     61 H341        -8.1660   -13.0070    13.2250 hc         1 YU8       0.068700
     62 H251        -3.8120    -8.6250    12.2390 hn         1 YU8       0.390000
     63 H1         -11.1170   -13.5140    17.5610 hn         1 YU8       0.389500
     64 H332        -9.5710   -13.9750    17.6540 hn         1 YU8       0.389500
@<TRIPOS>BOND
     1     1    16 ar  
     2     1    17 1   
     3     1    19 ar  
     4     2     8 ar  
     5     2    12 ar  
     6     2    29 1   
     7     3     4 1   
     8     3    30 1   
     9     3    38 1   
    10     3    39 1   
    11     4     5 1   
    12     4    23 1   
    13     4    26 1   
    14     5    27 1   
    15     6     7 1   
    16     6    40 1   
    17     6    41 1   
    18     6    42 1   
    19     7     8 1   
    20     7    30 1   
    21     7    43 1   
    22     8     9 ar  
    23     9    10 ar  
    24     9    44 1   
    25    10    11 ar  
    26    10    45 1   
    27    11    12 ar  
    28    11    46 1   
    29    12    13 1   
    30    13    14 1   
    31    13    21 2   
    32    14    15 ar  
    33    14    20 ar  
    34    15    16 ar  
    35    15    47 1   
    36    16    48 1   
    37    17    37 1   
    38    17    49 1   
    39    17    50 1   
    40    18    37 1   
    41    18    51 1   
    42    18    52 1   
    43    18    53 1   
    44    19    20 ar  
    45    19    28 1   
    46    20    54 1   
    47    21    22 1   
    48    21    29 1   
    49    22    34 1   
    50    22    35 1   
    51    23    24 1   
    52    23    55 1   
    53    23    56 1   
    54    24    25 1   
    55    24    26 1   
    56    24    57 1   
    57    25    31 1   
    58    25    58 1   
    59    25    59 1   
    60    26    60 1   
    61    26    61 1   
    62    27    30 1   
    63    27    36 2   
    64    29    62 1   
    65    31    63 1   
    66    31    64 1   
    67    32    37 2   
    68    33    37 2   
@<TRIPOS>SUBSTRUCTURE
     1 YU8         1 TEMP              0 ****  ****    0 ROOT
