@<TRIPOS>MOLECULE
YU8
   64    68     1     0     0
SMALL
abcg2


@<TRIPOS>ATOM
      1 C12         -0.4520   -10.6710     6.1180 ca         1 YU8      -0.166300
      2 C26         -2.7830   -10.4720    12.1450 ca         1 YU8      -0.056200
      3 C28         -5.6850   -11.7090    14.3240 c5         1 YU8       0.079000
      4 C29         -7.1060   -11.1580    14.4100 cy         1 YU8       0.142000
      5 O35         -6.9540    -9.7930    14.0120 os         1 YU8      -0.400100
      6 C01         -3.0290   -11.0350    15.9190 c3         1 YU8      -0.093100
      7 C02         -3.4730   -10.4680    14.5780 c3         1 YU8       0.186000
      8 C03         -2.8450   -11.1400    13.3750 ca         1 YU8      -0.132300
      9 C04         -2.3140   -12.4160    13.4050 ca         1 YU8      -0.109000
     10 C05         -1.7280   -13.0050    12.2720 ca         1 YU8      -0.165000
     11 C06         -1.6580   -12.3320    11.0710 ca         1 YU8      -0.064000
     12 C07         -2.2000   -11.0430    10.9930 ca         1 YU8      -0.083800
     13 C08         -2.2790   -10.0600     9.9510 cc         1 YU8      -0.164400
     14 C09         -1.6960   -10.2320     8.6170 ca         1 YU8       0.104200
     15 C10         -0.7790    -9.3150     8.1010 ca         1 YU8      -0.084000
     16 C11         -0.1720    -9.5360     6.8800 ca         1 YU8      -0.090000
     17 C13          0.2220   -10.9090     4.8110 c3         1 YU8      -0.199100
     18 C15         -0.8600    -8.5870     3.5990 c3         1 YU8      -0.330100
     19 C18         -1.3730   -11.5630     6.6440 ca         1 YU8       0.189000
     20 C20         -1.9880   -11.3700     7.8650 ca         1 YU8      -0.161000
     21 C21         -2.9000    -8.9570    10.4960 cd         1 YU8      -0.045300
     22 C22         -3.3320    -7.6290     9.9150 c          1 YU8       0.720200
     23 C30         -7.8110   -11.4090    15.7480 cy         1 YU8      -0.081400
     24 C31         -8.4850   -12.6240    15.0790 cy         1 YU8      -0.085700
     25 C32         -9.9270   -12.9230    15.4190 c3         1 YU8       0.161800
     26 C34         -8.1820   -11.9800    13.7090 cy         1 YU8      -0.081400
     27 C36         -5.6730    -9.4200    14.1410 c          1 YU8       0.692100
     28 F19         -1.6630   -12.6760     5.9540 f          1 YU8      -0.186000
     29 N25         -3.1920    -9.2200    11.8040 na         1 YU8      -0.191700
     30 N27         -4.9230   -10.4920    14.4720 n          1 YU8      -0.441800
     31 N33        -10.0500   -13.3310    16.8100 n8         1 YU8      -0.995200
     32 O16         -2.1120   -10.9020     3.5110 o          1 YU8      -0.530000
     33 O17          0.0110   -10.6460     2.1950 o          1 YU8      -0.530000
     34 O23         -3.1930    -7.4770     8.6910 o          1 YU8      -0.693000
     35 O24         -3.8020    -6.8250    10.7440 o          1 YU8      -0.693000
     36 O37         -5.3140    -8.2740    13.9770 o          1 YU8      -0.528000
     37 S14         -0.7620   -10.3540     3.4010 s6         1 YU8       1.064000
     38 H282        -5.4840   -12.1890    13.3600 h1         1 YU8       0.061700
     39 H281        -5.4730   -12.4290    15.1150 h1         1 YU8       0.061700
     40 H011        -3.4540   -10.4390    16.7260 hc         1 YU8       0.037700
     41 H012        -3.3430   -12.0680    16.0660 hc         1 YU8       0.037700
     42 H013        -1.9430   -10.9990    16.0060 hc         1 YU8       0.037700
     43 H021        -3.1870    -9.4140    14.5640 h1         1 YU8       0.084700
     44 H041        -2.3300   -12.9850    14.3260 ha         1 YU8       0.091000
     45 H051        -1.3170   -14.0040    12.3530 ha         1 YU8       0.094000
     46 H061        -1.1880   -12.7910    10.2100 ha         1 YU8       0.109000
     47 H101        -0.5220    -8.4350     8.6720 ha         1 YU8       0.138000
     48 H111         0.5500    -8.8200     6.5050 ha         1 YU8       0.098000
     49 H131         0.4140   -11.9640     4.6080 h1         1 YU8       0.095700
     50 H132         1.1710   -10.3750     4.7460 h1         1 YU8       0.095700
     51 H151        -1.4050    -8.3420     4.5070 h1         1 YU8       0.104367
     52 H153         0.1440    -8.1680     3.6310 h1         1 YU8       0.104367
     53 H152        -1.3960    -8.2030     2.7320 h1         1 YU8       0.104367
     54 H201        -2.6970   -12.1040     8.2260 ha         1 YU8       0.132000
     55 H301        -7.1890   -11.5620    16.6300 hc         1 YU8       0.068700
     56 H302        -8.5470   -10.6280    15.9540 hc         1 YU8       0.068700
     57 H311        -7.8770   -13.5240    15.2170 hc         1 YU8       0.050700
     58 H322       -10.5170   -12.0130    15.2750 h1         1 YU8       0.031200
     59 H321       -10.3140   -13.6620    14.7030 h1         1 YU8       0.031200
     60 H342        -9.0140   -11.3500    13.3870 hc         1 YU8       0.068700
     61 H341        -7.8730   -12.6150    12.8780 hc         1 YU8       0.068700
     62 H251        -3.6930    -8.5630    12.3860 hn         1 YU8       0.390000
     63 H1         -11.0260   -13.4680    17.0400 hn         1 YU8       0.389500
     64 H332        -9.6100   -14.2350    16.9360 hn         1 YU8       0.389500
@<TRIPOS>BOND
     1     1    16 ar  
     2     1    17 1   
     3     1    19 ar  
     4     2     8 ar  
     5     2    12 ar  
     6     2    29 1   
     7     3     4 1   
     8     3    30 1   
     9     3    38 1   
    10     3    39 1   
    11     4     5 1   
    12     4    23 1   
    13     4    26 1   
    14     5    27 1   
    15     6     7 1   
    16     6    40 1   
    17     6    41 1   
    18     6    42 1   
    19     7     8 1   
    20     7    30 1   
    21     7    43 1   
    22     8     9 ar  
    23     9    10 ar  
    24     9    44 1   
    25    10    11 ar  
    26    10    45 1   
    27    11    12 ar  
    28    11    46 1   
    29    12    13 1   
    30    13    14 1   
    31    13    21 2   
    32    14    15 ar  
    33    14    20 ar  
    34    15    16 ar  
    35    15    47 1   
    36    16    48 1   
    37    17    37 1   
    38    17    49 1   
    39    17    50 1   
    40    18    37 1   
    41    18    51 1   
    42    18    52 1   
    43    18    53 1   
    44    19    20 ar  
    45    19    28 1   
    46    20    54 1   
    47    21    22 1   
    48    21    29 1   
    49    22    34 1   
    50    22    35 1   
    51    23    24 1   
    52    23    55 1   
    53    23    56 1   
    54    24    25 1   
    55    24    26 1   
    56    24    57 1   
    57    25    31 1   
    58    25    58 1   
    59    25    59 1   
    60    26    60 1   
    61    26    61 1   
    62    27    30 1   
    63    27    36 2   
    64    29    62 1   
    65    31    63 1   
    66    31    64 1   
    67    32    37 2   
    68    33    37 2   
@<TRIPOS>SUBSTRUCTURE
     1 YU8         1 TEMP              0 ****  ****    0 ROOT
