@<TRIPOS>MOLECULE
YUA
   87    91     1     0     0
SMALL
No Charge or Current Charge


@<TRIPOS>ATOM
      1 C10         19.0140    -2.2900    14.9120 c3         1 YUA       0.224800
      2 C13         19.7220    -0.3350    16.4960 c3         1 YUA       0.099700
      3 C15         21.7940     0.4260    17.7020 c          1 YUA       0.638100
      4 C21         23.1090     2.2130    20.1540 c5         1 YUA      -0.148700
      5 C22         23.6500     3.6810    20.0820 c5         1 YUA       0.370300
      6 C24         21.3770     3.8260    19.6670 c5         1 YUA       0.152600
      7 C26         18.3510     0.3690    16.6950 c3         1 YUA      -0.044100
      8 C28         18.1940     0.1930    19.2300 ca         1 YUA      -0.101500
      9 C01         15.3560    -4.5920    13.3770 ca         1 YUA      -0.107000
     10 C02         16.0350    -4.0220    14.4710 ca         1 YUA      -0.021000
     11 C03         16.9870    -4.7810    15.1920 ca         1 YUA      -0.295500
     12 C04         17.2450    -6.1190    14.8200 ca         1 YUA      -0.002000
     13 C09         20.1720    -4.4760    15.3020 c3         1 YUA       0.213800
     14 C11         19.9160    -1.0320    15.1130 c3         1 YUA       0.151300
     15 C18         23.5840     1.5710    18.7850 c5         1 YUA       0.161300
     16 C19         24.6680     2.5820    18.3240 c5         1 YUA       0.153600
     17 C23         21.5530     2.4150    20.2730 c5         1 YUA      -0.098400
     18 C27         18.2040     1.0020    18.0770 ca         1 YUA      -0.081300
     19 C29         18.0640     0.7740    20.5040 ca         1 YUA      -0.115000
     20 C30         17.9370     2.1670    20.6330 ca         1 YUA      -0.115000
     21 C31         17.9400     2.9790    19.4860 ca         1 YUA      -0.115000
     22 C32         18.0760     2.3990    18.2130 ca         1 YUA      -0.101500
     23 C33         21.6310    -4.0530    14.9690 c3         1 YUA      -0.060700
     24 C34         22.3810    -3.5370    16.2350 c3         1 YUA      -0.075400
     25 C35         22.3920    -5.1820    14.2100 c3         1 YUA      -0.075400
     26 C36         22.6520    -6.4790    15.0090 c3         1 YUA      -0.087100
     27 C37         16.0640    -7.8870    11.7550 c5         1 YUA      -0.079400
     28 C38         16.6950    -8.0650    13.1880 c5         1 YUA      -0.034100
     29 C39         16.5610    -6.6640    13.7220 ca         1 YUA      -0.100300
     30 C40         15.6410    -5.9190    13.0100 ca         1 YUA      -0.072300
     31 C41         15.0160    -6.7170    11.8880 c5         1 YUA       0.209600
     32 C43         23.7630    -2.9110    15.9570 c3         1 YUA      -0.087100
     33 N08         19.2770    -3.4200    15.8560 n3         1 YUA      -0.758500
     34 N14         20.8140     0.6120    16.7710 ns         1 YUA      -0.505900
     35 O06         18.3140    -5.1120    17.4980 o          1 YUA      -0.535500
     36 O07         17.1200    -2.9010    17.1010 o          1 YUA      -0.535500
     37 O12         19.6970    -0.0960    14.0360 oh         1 YUA      -0.666000
     38 O16         21.9340    -0.5760    18.3860 o          1 YUA      -0.537000
     39 O17         22.5420     1.5680    17.7650 os         1 YUA      -0.454100
     40 O20         24.1570     3.8570    18.7490 os         1 YUA      -0.459000
     41 O25         22.4980     4.5320    20.2300 os         1 YUA      -0.440000
     42 O42         14.8980    -5.9700    10.6780 oh         1 YUA      -0.644000
     43 S05         17.8660    -4.0530    16.5860 sy         1 YUA       1.166600
     44 H102        17.9750    -1.9450    14.9770 h1         1 YUA       0.065700
     45 H101        19.1340    -2.6380    13.8770 h1         1 YUA       0.065700
     46 H131        19.7790    -1.1320    17.2490 h1         1 YUA       0.093700
     47 H221        24.4210     3.8940    20.8350 h2         1 YUA       0.078700
     48 H241        20.4370     4.3080    19.9650 h1         1 YUA       0.055200
     49 H242        21.4500     3.8270    18.5710 h1         1 YUA       0.055200
     50 H261        18.2200     1.1300    15.9170 hc         1 YUA       0.067700
     51 H262        17.5410    -0.3520    16.5450 hc         1 YUA       0.067700
     52 H281        18.2860    -0.8870    19.1410 ha         1 YUA       0.118500
     53 H011        14.6200    -4.0080    12.8300 ha         1 YUA       0.119000
     54 H021        15.8140    -2.9950    14.7560 ha         1 YUA       0.127000
     55 H041        17.9630    -6.7270    15.3680 ha         1 YUA       0.142000
     56 H091        19.7210    -4.8910    14.3910 h1         1 YUA       0.048200
     57 H092        20.2510    -5.3060    16.0150 h1         1 YUA       0.048200
     58 H111        20.9580    -1.3630    15.0760 h1         1 YUA       0.053700
     59 H181        24.0210     0.5700    18.9020 h1         1 YUA       0.085700
     60 H192        24.8240     2.5780    17.2370 h1         1 YUA       0.060200
     61 H191        25.6300     2.3940    18.8210 h1         1 YUA       0.060200
     62 H232        21.2470     2.4250    21.3250 hc         1 YUA       0.066700
     63 H231        20.9360     1.6540    19.7900 hc         1 YUA       0.066700
     64 H291        18.0600     0.1430    21.3900 ha         1 YUA       0.112500
     65 H301        17.8350     2.6160    21.6180 ha         1 YUA       0.110000
     66 H311        17.8390     4.0580    19.5840 ha         1 YUA       0.112500
     67 H321        18.0810     3.0390    17.3330 ha         1 YUA       0.118500
     68 H331        21.5740    -3.2260    14.2540 hc         1 YUA       0.044700
     69 H341        21.7650    -2.7810    16.7330 hc         1 YUA       0.047950
     70 H342        22.4920    -4.3510    16.9610 hc         1 YUA       0.047950
     71 H351        23.3520    -4.7940    13.8490 hc         1 YUA       0.047950
     72 H352        21.8240    -5.4420    13.3080 hc         1 YUA       0.047950
     73 H363        23.1720    -7.2100    14.3790 hc         1 YUA       0.031367
     74 H362        23.2810    -6.2870    15.8860 hc         1 YUA       0.031367
     75 H361        21.7130    -6.9360    15.3450 hc         1 YUA       0.031367
     76 H371        15.6090    -8.8100    11.3820 hc         1 YUA       0.062700
     77 H372        16.8490    -7.6130    11.0400 hc         1 YUA       0.062700
     78 H381        16.1270    -8.7800    13.7940 hc         1 YUA       0.060200
     79 H382        17.7330    -8.4130    13.1440 hc         1 YUA       0.060200
     80 H411        14.0370    -7.1020    12.2080 h1         1 YUA       0.045700
     81 H433        24.1760    -2.4840    16.8790 hc         1 YUA       0.031367
     82 H432        24.4720    -3.6610    15.5860 hc         1 YUA       0.031367
     83 H431        23.6830    -2.1070    15.2160 hc         1 YUA       0.031367
     84 H141        20.8010     1.5210    16.3290 hn         1 YUA       0.323500
     85 H121        20.4450     0.5400    14.0510 ho         1 YUA       0.451000
     86 H421        14.2850    -5.2280    10.8680 ho         1 YUA       0.447000
     87 H211        23.5230     1.6730    21.0130 hc         1 YUA       0.076700
@<TRIPOS>BOND
     1     1    14 1   
     2     1    33 1   
     3     1    44 1   
     4     1    45 1   
     5     2     7 1   
     6     2    14 1   
     7     2    34 1   
     8     2    46 1   
     9     3    34 1   
    10     3    38 2   
    11     3    39 1   
    12     4     5 1   
    13     4    15 1   
    14     4    17 1   
    15     4    87 1   
    16     5    40 1   
    17     5    41 1   
    18     5    47 1   
    19     6    17 1   
    20     6    41 1   
    21     6    48 1   
    22     6    49 1   
    23     7    18 1   
    24     7    50 1   
    25     7    51 1   
    26     8    18 ar  
    27     8    19 ar  
    28     8    52 1   
    29     9    10 ar  
    30     9    30 ar  
    31     9    53 1   
    32    10    11 ar  
    33    10    54 1   
    34    11    12 ar  
    35    11    43 1   
    36    12    29 ar  
    37    12    55 1   
    38    13    23 1   
    39    13    33 1   
    40    13    56 1   
    41    13    57 1   
    42    14    37 1   
    43    14    58 1   
    44    15    16 1   
    45    15    39 1   
    46    15    59 1   
    47    16    40 1   
    48    16    60 1   
    49    16    61 1   
    50    17    62 1   
    51    17    63 1   
    52    18    22 ar  
    53    19    20 ar  
    54    19    64 1   
    55    20    21 ar  
    56    20    65 1   
    57    21    22 ar  
    58    21    66 1   
    59    22    67 1   
    60    23    24 1   
    61    23    25 1   
    62    23    68 1   
    63    24    32 1   
    64    24    69 1   
    65    24    70 1   
    66    25    26 1   
    67    25    71 1   
    68    25    72 1   
    69    26    73 1   
    70    26    74 1   
    71    26    75 1   
    72    27    28 1   
    73    27    31 1   
    74    27    76 1   
    75    27    77 1   
    76    28    29 1   
    77    28    78 1   
    78    28    79 1   
    79    29    30 ar  
    80    30    31 1   
    81    31    42 1   
    82    31    80 1   
    83    32    81 1   
    84    32    82 1   
    85    32    83 1   
    86    33    43 1   
    87    34    84 1   
    88    35    43 2   
    89    36    43 2   
    90    37    85 1   
    91    42    86 1   
@<TRIPOS>SUBSTRUCTURE
     1 YUA         1 TEMP              0 ****  ****    0 ROOT
