@<TRIPOS>MOLECULE
YUA
   87    91     1     0     0
SMALL
abcg2


@<TRIPOS>ATOM
      1 C10         19.2030    -1.5880    14.2650 c3         1 YUA       0.224800
      2 C13         19.8320    -0.0020    16.2010 c3         1 YUA       0.099700
      3 C15         21.7360     0.3870    17.7060 c          1 YUA       0.638100
      4 C21         22.8810     1.6710    20.4790 c5         1 YUA      -0.148700
      5 C22         23.4960     3.0880    20.6130 c5         1 YUA       0.370300
      6 C24         21.2780     3.4040    20.1420 c5         1 YUA       0.152600
      7 C26         18.5350     0.7990    16.3430 c3         1 YUA      -0.044100
      8 C28         18.0110     0.2090    18.7420 ca         1 YUA      -0.101500
      9 C01         15.5620    -4.8970    13.3850 ca         1 YUA      -0.107000
     10 C02         16.3310    -4.0270    14.1430 ca         1 YUA      -0.021000
     11 C03         17.2370    -4.5400    15.0690 ca         1 YUA      -0.295500
     12 C04         17.3930    -5.9080    15.2610 ca         1 YUA      -0.002000
     13 C09         20.2210    -3.8660    14.3540 c3         1 YUA       0.213800
     14 C11         20.1220    -0.4700    14.7650 c3         1 YUA       0.151300
     15 C18         23.4580     1.1400    19.1570 c5         1 YUA       0.161300
     16 C19         24.6730     2.0290    18.9740 c5         1 YUA       0.153600
     17 C23         21.3790     1.9440    20.5570 c5         1 YUA      -0.098400
     18 C27         18.2520     1.1810    17.7710 ca         1 YUA      -0.081300
     19 C29         17.7440     0.5660    20.0560 ca         1 YUA      -0.115000
     20 C30         17.7080     1.9050    20.4260 ca         1 YUA      -0.115000
     21 C31         17.9460     2.8810    19.4700 ca         1 YUA      -0.115000
     22 C32         18.2220     2.5180    18.1570 ca         1 YUA      -0.101500
     23 C33         21.7170    -3.5510    14.3620 c3         1 YUA      -0.060700
     24 C34         22.2520    -3.3870    15.7820 c3         1 YUA      -0.075400
     25 C35         22.4660    -4.6090    13.5400 c3         1 YUA      -0.075400
     26 C36         22.5070    -6.0090    14.1440 c3         1 YUA      -0.087100
     27 C37         15.8910    -8.5910    13.1660 c5         1 YUA      -0.079400
     28 C38         16.5850    -8.2680    14.4980 c5         1 YUA      -0.034100
     29 C39         16.6190    -6.7640    14.4960 ca         1 YUA      -0.100300
     30 C40         15.7100    -6.2620    13.5720 ca         1 YUA      -0.072300
     31 C41         14.9770    -7.3930    12.8910 c5         1 YUA       0.209600
     32 C43         23.6930    -2.9000    15.8400 c3         1 YUA      -0.087100
     33 N08         19.3900    -2.8400    14.9910 n3         1 YUA      -0.758500
     34 N14         20.9390     0.7910    16.7010 ns         1 YUA      -0.505900
     35 O06         18.8740    -4.1400    17.0720 o          1 YUA      -0.535500
     36 O07         17.3650    -2.2720    16.3560 o          1 YUA      -0.535500
     37 O12         19.9990     0.5730    13.8250 oh         1 YUA      -0.666000
     38 O16         21.7070    -0.7050    18.2360 o          1 YUA      -0.537000
     39 O17         22.5900     1.3630    18.0490 os         1 YUA      -0.454100
     40 O20         24.2820     3.2940    19.4620 os         1 YUA      -0.459000
     41 O25         22.4580     4.0040    20.6660 os         1 YUA      -0.440000
     42 O42         14.7680    -7.2170    11.5150 oh         1 YUA      -0.644000
     43 S05         18.2190    -3.3980    16.0070 sy         1 YUA       1.166600
     44 H102        18.1610    -1.2670    14.2930 h1         1 YUA       0.065700
     45 H101        19.4380    -1.7740    13.2130 h1         1 YUA       0.065700
     46 H131        19.7820    -0.8900    16.8300 h1         1 YUA       0.093700
     47 H221        24.1110     3.2200    21.5110 h2         1 YUA       0.078700
     48 H241        20.4180     3.9170    20.5710 h1         1 YUA       0.055200
     49 H242        21.2250     3.5110    19.0530 h1         1 YUA       0.055200
     50 H261        18.5940     1.7010    15.7300 hc         1 YUA       0.067700
     51 H262        17.7050     0.2110    15.9480 hc         1 YUA       0.067700
     52 H281        18.0160    -0.8390    18.4660 ha         1 YUA       0.118500
     53 H011        14.8570    -4.5010    12.6650 ha         1 YUA       0.119000
     54 H021        16.2180    -2.9590    14.0100 ha         1 YUA       0.127000
     55 H041        18.1030    -6.2950    15.9800 ha         1 YUA       0.142000
     56 H091        19.8790    -4.0060    13.3220 h1         1 YUA       0.048200
     57 H092        20.0630    -4.8160    14.8650 h1         1 YUA       0.048200
     58 H111        21.1480    -0.8590    14.7730 h1         1 YUA       0.053700
     59 H181        23.7290     0.0860    19.2160 h1         1 YUA       0.085700
     60 H192        24.9920     2.1230    17.9360 h1         1 YUA       0.060200
     61 H191        25.5100     1.6160    19.5520 h1         1 YUA       0.060200
     62 H232        21.0440     1.8270    21.5900 hc         1 YUA       0.066700
     63 H231        20.7560     1.2870    19.9530 hc         1 YUA       0.066700
     64 H291        17.5550    -0.2050    20.7930 ha         1 YUA       0.112500
     65 H301        17.4950     2.1830    21.4500 ha         1 YUA       0.110000
     66 H311        17.9210     3.9280    19.7440 ha         1 YUA       0.112500
     67 H321        18.4070     3.2900    17.4170 ha         1 YUA       0.118500
     68 H331        21.8630    -2.6020    13.8310 hc         1 YUA       0.044700
     69 H341        21.6220    -2.6770    16.3190 hc         1 YUA       0.047950
     70 H342        22.1570    -4.3320    16.3270 hc         1 YUA       0.047950
     71 H351        23.4900    -4.2650    13.3750 hc         1 YUA       0.047950
     72 H352        22.0130    -4.6590    12.5450 hc         1 YUA       0.047950
     73 H363        23.0400    -6.6910    13.4800 hc         1 YUA       0.031367
     74 H362        23.0240    -6.0220    15.1040 hc         1 YUA       0.031367
     75 H361        21.5120    -6.4270    14.3000 hc         1 YUA       0.031367
     76 H371        15.3510    -9.5370    13.1830 hc         1 YUA       0.062700
     77 H372        16.6390    -8.6450    12.3700 hc         1 YUA       0.062700
     78 H381        15.9950    -8.6300    15.3450 hc         1 YUA       0.060200
     79 H382        17.5750    -8.7160    14.5840 hc         1 YUA       0.060200
     80 H411        14.0200    -7.5400    13.4130 h1         1 YUA       0.045700
     81 H433        23.9950    -2.7050    16.8700 hc         1 YUA       0.031367
     82 H432        24.3930    -3.6260    15.4260 hc         1 YUA       0.031367
     83 H431        23.8130    -1.9700    15.2810 hc         1 YUA       0.031367
     84 H141        21.0110     1.7530    16.4010 hn         1 YUA       0.323500
     85 H121        20.7410     1.1770    13.9270 ho         1 YUA       0.451000
     86 H421        13.9940    -6.6610    11.3880 ho         1 YUA       0.447000
     87 H211        23.2130     1.0200    21.2870 hc         1 YUA       0.076700
@<TRIPOS>BOND
     1     1    14 1   
     2     1    33 1   
     3     1    44 1   
     4     1    45 1   
     5     2     7 1   
     6     2    14 1   
     7     2    34 1   
     8     2    46 1   
     9     3    34 1   
    10     3    38 2   
    11     3    39 1   
    12     4     5 1   
    13     4    15 1   
    14     4    17 1   
    15     4    87 1   
    16     5    40 1   
    17     5    41 1   
    18     5    47 1   
    19     6    17 1   
    20     6    41 1   
    21     6    48 1   
    22     6    49 1   
    23     7    18 1   
    24     7    50 1   
    25     7    51 1   
    26     8    18 ar  
    27     8    19 ar  
    28     8    52 1   
    29     9    10 ar  
    30     9    30 ar  
    31     9    53 1   
    32    10    11 ar  
    33    10    54 1   
    34    11    12 ar  
    35    11    43 1   
    36    12    29 ar  
    37    12    55 1   
    38    13    23 1   
    39    13    33 1   
    40    13    56 1   
    41    13    57 1   
    42    14    37 1   
    43    14    58 1   
    44    15    16 1   
    45    15    39 1   
    46    15    59 1   
    47    16    40 1   
    48    16    60 1   
    49    16    61 1   
    50    17    62 1   
    51    17    63 1   
    52    18    22 ar  
    53    19    20 ar  
    54    19    64 1   
    55    20    21 ar  
    56    20    65 1   
    57    21    22 ar  
    58    21    66 1   
    59    22    67 1   
    60    23    24 1   
    61    23    25 1   
    62    23    68 1   
    63    24    32 1   
    64    24    69 1   
    65    24    70 1   
    66    25    26 1   
    67    25    71 1   
    68    25    72 1   
    69    26    73 1   
    70    26    74 1   
    71    26    75 1   
    72    27    28 1   
    73    27    31 1   
    74    27    76 1   
    75    27    77 1   
    76    28    29 1   
    77    28    78 1   
    78    28    79 1   
    79    29    30 ar  
    80    30    31 1   
    81    31    42 1   
    82    31    80 1   
    83    32    81 1   
    84    32    82 1   
    85    32    83 1   
    86    33    43 1   
    87    34    84 1   
    88    35    43 2   
    89    36    43 2   
    90    37    85 1   
    91    42    86 1   
@<TRIPOS>SUBSTRUCTURE
     1 YUA         1 TEMP              0 ****  ****    0 ROOT
