@<TRIPOS>MOLECULE
YUB
   44    47     1     0     0
SMALL
No Charge or Current Charge


@<TRIPOS>ATOM
      1 C15         11.3710     9.9970    20.0500 c3         1 YUB       0.292100
      2 C16         10.4000    11.9060    21.4920 ca         1 YUB       0.122000
      3 C17         15.1620    16.5540    17.6170 ca         1 YUB       0.107000
      4 C18         17.2920    14.9000    20.3990 c3         1 YUB       0.239000
      5 C21         10.6700     9.6900    22.4670 ca         1 YUB      -0.090000
      6 C22         16.6600    14.6470    17.4220 ca         1 YUB      -0.150000
      7 C23          9.8860    12.3710    22.7160 ca         1 YUB      -0.102000
      8 C24         14.8840    16.4820    16.2410 ca         1 YUB      -0.109000
      9 C25         10.1560    10.1620    23.6870 ca         1 YUB      -0.107000
     10 C26         15.4940    15.4910    15.4540 ca         1 YUB      -0.119000
     11 C27          9.7650    11.5040    23.8130 ca         1 YUB      -0.105000
     12 C28         16.3810    14.5750    16.0440 ca         1 YUB      -0.082000
     13 C12         10.8050    10.5540    21.3580 ca         1 YUB      -0.090300
     14 C14         16.0540    15.6350    18.2250 ca         1 YUB       0.253000
     15 C2          15.0740    11.8280    20.4220 cc         1 YUB       0.691400
     16 C5          17.1590    10.9990    21.2080 c          1 YUB       0.565000
     17 C6          13.8360    10.2460    20.4000 cd         1 YUB       0.817900
     18 C7          17.5980    12.3990    21.0320 cc         1 YUB      -0.403200
     19 C9          16.8190    13.4570    20.5770 cd         1 YUB       0.166800
     20 N1          15.8250    10.8090    20.8610 n          1 YUB      -0.063500
     21 N10         12.7430     9.5020    20.2390 nu         1 YUB      -0.940100
     22 N11         16.3240    15.7120    19.6060 nu         1 YUB      -0.969200
     23 N3          13.8350    11.5880    20.1060 nd         1 YUB      -0.769000
     24 N4          14.9700     9.7430    20.8390 nc         1 YUB      -0.575800
     25 N8          15.5030    13.0970    20.2760 na         1 YUB      -0.746900
     26 Cl19        10.5040    13.0540    20.1550 cl         1 YUB      -0.216000
     27 H33         11.3500    10.7500    19.2510 h1         1 YUB       0.070700
     28 H34         10.7230     9.1750    19.7150 h1         1 YUB       0.070700
     29 H36         17.4160    15.3370    21.4000 h1         1 YUB       0.071200
     30 H35         18.2800    14.9010    19.9200 h1         1 YUB       0.071200
     31 H37         10.9670     8.6470    22.3840 ha         1 YUB       0.123000
     32 H38         17.3480    13.9290    17.8550 ha         1 YUB       0.122000
     33 H39          9.5780    13.4100    22.8110 ha         1 YUB       0.128000
     34 H40         14.1970    17.1930    15.7890 ha         1 YUB       0.134000
     35 H41         10.0600     9.4860    24.5340 ha         1 YUB       0.117000
     36 H42         15.2800    15.4320    14.3890 ha         1 YUB       0.124000
     37 H43          9.3660    11.8700    24.7570 ha         1 YUB       0.117000
     38 H44         16.8530    13.8070    15.4340 ha         1 YUB       0.122000
     39 H29         18.6360    12.5650    21.2960 ha         1 YUB       0.221000
     40 H31         12.8770     8.5540    20.5740 hn         1 YUB       0.511000
     41 H32         15.8820    16.4990    20.0900 hn         1 YUB       0.492000
     42 H30         14.8600    13.7920    19.9190 hn         1 YUB       0.554000
     43 O13         17.8900    10.1050    21.6140 o          1 YUB      -0.475000
     44 F20         14.5610    17.5180    18.3580 f          1 YUB      -0.187000
@<TRIPOS>BOND
     1     1    13 1   
     2     1    21 1   
     3     1    27 1   
     4     1    28 1   
     5     2     7 ar  
     6     2    13 ar  
     7     2    26 1   
     8     3     8 ar  
     9     3    14 ar  
    10     3    44 1   
    11     4    19 1   
    12     4    22 1   
    13     4    29 1   
    14     4    30 1   
    15     5     9 ar  
    16     5    13 ar  
    17     5    31 1   
    18     6    12 ar  
    19     6    14 ar  
    20     6    32 1   
    21     7    11 ar  
    22     7    33 1   
    23     8    10 ar  
    24     8    34 1   
    25     9    11 ar  
    26     9    35 1   
    27    10    12 ar  
    28    10    36 1   
    29    11    37 1   
    30    12    38 1   
    31    14    22 1   
    32    15    20 1   
    33    15    23 2   
    34    15    25 1   
    35    16    18 1   
    36    16    20 1   
    37    16    43 2   
    38    17    21 1   
    39    17    23 1   
    40    17    24 2   
    41    18    19 2   
    42    18    39 1   
    43    19    25 1   
    44    20    24 1   
    45    21    40 1   
    46    22    41 1   
    47    25    42 1   
@<TRIPOS>SUBSTRUCTURE
     1 YUB         1 TEMP              0 ****  ****    0 ROOT
