@<TRIPOS>MOLECULE
YUB
   44    47     1     0     0
SMALL
abcg2


@<TRIPOS>ATOM
      1 C15         11.3210     9.9080    20.3200 c3         1 YUB       0.292100
      2 C16          9.3910    11.0790    21.4550 ca         1 YUB       0.122000
      3 C17         15.6200    16.7420    17.6690 ca         1 YUB       0.107000
      4 C18         17.2960    14.7040    20.2860 c3         1 YUB       0.239000
      5 C21         11.2230    10.4110    22.8100 ca         1 YUB      -0.090000
      6 C22         16.8280    14.7110    17.4120 ca         1 YUB      -0.150000
      7 C23          8.7350    11.6000    22.5580 ca         1 YUB      -0.102000
      8 C24         15.4780    16.8700    16.3080 ca         1 YUB      -0.109000
      9 C25         10.5840    10.9260    23.9290 ca         1 YUB      -0.107000
     10 C26         16.0170    15.8970    15.4730 ca         1 YUB      -0.119000
     11 C27          9.3390    11.5230    23.8050 ca         1 YUB      -0.105000
     12 C28         16.6910    14.8240    16.0340 ca         1 YUB      -0.082000
     13 C12         10.6430    10.4760    21.5480 ca         1 YUB      -0.090300
     14 C14         16.2900    15.6720    18.2690 ca         1 YUB       0.253000
     15 C2          14.9040    11.9000    20.4340 cc         1 YUB       0.691400
     16 C5          17.1050    10.8820    20.7360 c          1 YUB       0.565000
     17 C6          13.7400    10.1880    20.5490 cd         1 YUB       0.817900
     18 C7          17.6080    12.2230    20.5790 cc         1 YUB      -0.403200
     19 C9          16.7890    13.2870    20.3900 cd         1 YUB       0.166800
     20 N1          15.7130    10.8360    20.6420 n          1 YUB      -0.063500
     21 N10         12.6450     9.4020    20.5370 nu         1 YUB      -0.940100
     22 N11         16.3580    15.5840    19.6470 nu         1 YUB      -0.969200
     23 N3          13.6520    11.5360    20.3720 nd         1 YUB      -0.769000
     24 N4          14.9570     9.7110    20.7180 nc         1 YUB      -0.575800
     25 N8          15.4440    13.1280    20.3240 na         1 YUB      -0.746900
     26 CL19         8.6060    11.1870    19.9060 cl         1 YUB      -0.216000
     27 H33         11.3460    10.6660    19.5350 h1         1 YUB       0.070700
     28 H34         10.7160     9.0890    19.9260 h1         1 YUB       0.070700
     29 H36         17.4580    15.0730    21.3000 h1         1 YUB       0.071200
     30 H35         18.2760    14.6900    19.7990 h1         1 YUB       0.071200
     31 H37         12.1920     9.9410    22.9210 ha         1 YUB       0.123000
     32 H38         17.3600    13.8580    17.8150 ha         1 YUB       0.122000
     33 H39          7.7630    12.0610    22.4450 ha         1 YUB       0.128000
     34 H40         14.9500    17.7250    15.9050 ha         1 YUB       0.134000
     35 H41         11.0610    10.8580    24.8980 ha         1 YUB       0.117000
     36 H42         15.9090    15.9850    14.4010 ha         1 YUB       0.124000
     37 H43          8.8320    11.9280    24.6710 ha         1 YUB       0.117000
     38 H44         17.1190    14.0590    15.4000 ha         1 YUB       0.122000
     39 H29         18.6780    12.3710    20.6180 ha         1 YUB       0.221000
     40 H31         12.7690     8.4240    20.7380 hn         1 YUB       0.511000
     41 H32         16.1760    16.4360    20.1510 hn         1 YUB       0.492000
     42 H30         14.8560    13.9380    20.1610 hn         1 YUB       0.554000
     43 O13         17.7560     9.8740    20.9240 o          1 YUB      -0.475000
     44 F20         15.1000    17.6870    18.4790 f          1 YUB      -0.187000
@<TRIPOS>BOND
     1     1    13 1   
     2     1    21 1   
     3     1    27 1   
     4     1    28 1   
     5     2     7 ar  
     6     2    13 ar  
     7     2    26 1   
     8     3     8 ar  
     9     3    14 ar  
    10     3    44 1   
    11     4    19 1   
    12     4    22 1   
    13     4    29 1   
    14     4    30 1   
    15     5     9 ar  
    16     5    13 ar  
    17     5    31 1   
    18     6    12 ar  
    19     6    14 ar  
    20     6    32 1   
    21     7    11 ar  
    22     7    33 1   
    23     8    10 ar  
    24     8    34 1   
    25     9    11 ar  
    26     9    35 1   
    27    10    12 ar  
    28    10    36 1   
    29    11    37 1   
    30    12    38 1   
    31    14    22 1   
    32    15    20 1   
    33    15    23 2   
    34    15    25 1   
    35    16    18 1   
    36    16    20 1   
    37    16    43 2   
    38    17    21 1   
    39    17    23 1   
    40    17    24 2   
    41    18    19 2   
    42    18    39 1   
    43    19    25 1   
    44    20    24 1   
    45    21    40 1   
    46    22    41 1   
    47    25    42 1   
@<TRIPOS>SUBSTRUCTURE
     1 YUB         1 TEMP              0 ****  ****    0 ROOT
