@<TRIPOS>MOLECULE
YUC
   64    68     1     0     0
SMALL
No Charge or Current Charge


@<TRIPOS>ATOM
      1 C10        -21.5210   -12.1670     9.9100 cc         1 YUC      -0.167400
      2 C11        -20.9290   -12.4080     8.5980 ca         1 YUC       0.074200
      3 C12        -21.3170   -13.5320     7.8500 ca         1 YUC      -0.097000
      4 C13        -20.7290   -13.7890     6.5990 ca         1 YUC      -0.117000
      5 C14        -19.7480   -12.9260     6.0770 ca         1 YUC       0.229000
      6 C01        -22.5630   -12.5880    15.8740 c3         1 YUC      -0.095100
      7 C02        -23.0660   -12.2720    14.4470 c3         1 YUC       0.188000
      8 C03        -22.2820   -12.9870    13.3350 ca         1 YUC      -0.129300
      9 C04        -22.1630   -12.4080    12.0540 ca         1 YUC      -0.056200
     10 C06        -22.3120   -11.0590    10.2410 cd         1 YUC      -0.041300
     11 C07        -22.7340    -9.9200     9.3500 c          1 YUC       0.720200
     12 C17        -19.9840   -11.0240     3.3960 c3         1 YUC      -0.338100
     13 C20        -19.3310   -11.8110     6.8430 ca         1 YUC      -0.013000
     14 C21        -18.2900   -10.9300     6.3880 cg         1 YUC       0.358000
     15 C23        -19.9230   -11.5620     8.0980 ca         1 YUC      -0.026000
     16 C24        -21.4570   -13.0200    11.0550 ca         1 YUC      -0.082800
     17 C25        -20.8220   -14.2540    11.2310 ca         1 YUC      -0.067000
     18 C26        -20.9370   -14.8730    12.4900 ca         1 YUC      -0.163000
     19 C27        -21.6610   -14.2490    13.5320 ca         1 YUC      -0.110000
     20 C29        -25.1890   -13.7920    14.5670 c5         1 YUC       0.087000
     21 C30        -26.6620   -13.2930    14.4440 cy         1 YUC       0.137000
     22 C31        -27.5170   -13.0970    15.7480 cy         1 YUC      -0.077900
     23 C32        -28.7780   -13.3870    14.8670 cy         1 YUC      -0.079700
     24 C33        -29.9950   -14.0500    15.5300 c3         1 YUC       0.160800
     25 C35        -27.8100   -14.2690    14.0070 cy         1 YUC      -0.077900
     26 C37        -25.3400   -11.5770    13.7030 c          1 YUC       0.690100
     27 N05        -22.7030   -11.2100    11.5990 na         1 YUC      -0.189700
     28 N15        -19.1890   -13.2250     4.8320 nu         1 YUC      -0.898100
     29 N22        -17.4450   -10.2030     6.0370 n1         1 YUC      -0.498000
     30 N28        -24.5180   -12.5060    14.3160 n          1 YUC      -0.444800
     31 N34        -31.0520   -14.4950    14.6040 n8         1 YUC      -0.994200
     32 O08        -22.3950    -9.8920     8.1760 o          1 YUC      -0.691000
     33 O09        -23.4300    -9.0470     9.8500 o          1 YUC      -0.691000
     34 O18        -18.8990   -13.2150     2.3670 o          1 YUC      -0.551500
     35 O19        -21.2160   -13.3730     3.3940 o          1 YUC      -0.551500
     36 O36        -26.5890   -12.0960    13.6540 os         1 YUC      -0.403100
     37 O38        -25.0050   -10.4900    13.2600 o          1 YUC      -0.530000
     38 S16        -19.8700   -12.7990     3.3790 s6         1 YUC       1.183100
     39 H121       -22.0780   -14.2040     8.2390 ha         1 YUC       0.120000
     40 H131       -21.0480   -14.6590     6.0320 ha         1 YUC       0.111000
     41 H013       -23.0740   -11.9490    16.6030 hc         1 YUC       0.037700
     42 H011       -22.7510   -13.6300    16.1530 hc         1 YUC       0.037700
     43 H012       -21.4860   -12.3970    15.9510 hc         1 YUC       0.037700
     44 H021       -22.8820   -11.1970    14.3200 h1         1 YUC       0.085700
     45 H171       -20.6140   -10.7400     4.2440 h1         1 YUC       0.106700
     46 H172       -18.9680   -10.6300     3.4970 h1         1 YUC       0.106700
     47 H173       -20.4350   -10.7180     2.4470 h1         1 YUC       0.106700
     48 H231       -19.6040   -10.7100     8.6930 ha         1 YUC       0.151000
     49 H251       -20.2640   -14.7220    10.4230 ha         1 YUC       0.106000
     50 H261       -20.4640   -15.8370    12.6630 ha         1 YUC       0.094000
     51 H271       -21.7330   -14.7600    14.4880 ha         1 YUC       0.091000
     52 H292       -24.9170   -14.5330    13.8040 h1         1 YUC       0.061200
     53 H291       -24.9490   -14.2030    15.5560 h1         1 YUC       0.061200
     54 H311       -27.3250   -13.8420    16.5290 hc         1 YUC       0.064700
     55 H312       -27.4690   -12.1020    16.2030 hc         1 YUC       0.064700
     56 H321       -29.1370   -12.4980    14.3330 hc         1 YUC       0.069700
     57 H331       -29.6470   -14.9220    16.1000 h1         1 YUC       0.024700
     58 H332       -30.4330   -13.3320    16.2370 h1         1 YUC       0.024700
     59 H351       -28.0220   -14.3050    12.9330 hc         1 YUC       0.064700
     60 H352       -27.6890   -15.2980    14.3680 hc         1 YUC       0.064700
     61 H051       -23.3460   -10.6000    12.0990 hn         1 YUC       0.393000
     62 H151       -19.0810   -14.2190     4.6730 hn         1 YUC       0.489000
     63 H1         -31.8430   -14.8590    15.1500 hn         1 YUC       0.391000
     64 H341       -31.4440   -13.6740    14.1270 hn         1 YUC       0.391000
@<TRIPOS>BOND
     1     1     2 1   
     2     1    10 2   
     3     1    16 1   
     4     2     3 ar  
     5     2    15 ar  
     6     3     4 ar  
     7     3    39 1   
     8     4     5 ar  
     9     4    40 1   
    10     5    13 ar  
    11     5    28 1   
    12     6     7 1   
    13     6    41 1   
    14     6    42 1   
    15     6    43 1   
    16     7     8 1   
    17     7    30 1   
    18     7    44 1   
    19     8     9 ar  
    20     8    19 ar  
    21     9    16 ar  
    22     9    27 1   
    23    10    11 1   
    24    10    27 1   
    25    11    32 1   
    26    11    33 1   
    27    12    38 1   
    28    12    45 1   
    29    12    46 1   
    30    12    47 1   
    31    13    14 1   
    32    13    15 ar  
    33    14    29 3   
    34    15    48 1   
    35    16    17 ar  
    36    17    18 ar  
    37    17    49 1   
    38    18    19 ar  
    39    18    50 1   
    40    19    51 1   
    41    20    21 1   
    42    20    30 1   
    43    20    52 1   
    44    20    53 1   
    45    21    22 1   
    46    21    25 1   
    47    21    36 1   
    48    22    23 1   
    49    22    54 1   
    50    22    55 1   
    51    23    24 1   
    52    23    25 1   
    53    23    56 1   
    54    24    31 1   
    55    24    57 1   
    56    24    58 1   
    57    25    59 1   
    58    25    60 1   
    59    26    30 1   
    60    26    36 1   
    61    26    37 2   
    62    27    61 1   
    63    28    38 1   
    64    28    62 1   
    65    31    63 1   
    66    31    64 1   
    67    34    38 2   
    68    35    38 2   
@<TRIPOS>SUBSTRUCTURE
     1 YUC         1 TEMP              0 ****  ****    0 ROOT
