@<TRIPOS>MOLECULE
YUC
   64    68     1     0     0
SMALL
abcg2


@<TRIPOS>ATOM
      1 C10        -21.7190   -12.0870     9.9200 cc         1 YUC      -0.167400
      2 C11        -21.1170   -12.3120     8.6060 ca         1 YUC       0.074200
      3 C12        -21.3470   -13.5030     7.9160 ca         1 YUC      -0.097000
      4 C13        -20.7130   -13.7840     6.7150 ca         1 YUC      -0.117000
      5 C14        -19.8240   -12.8750     6.1660 ca         1 YUC       0.229000
      6 C01        -22.5940   -12.8610    15.8940 c3         1 YUC      -0.095100
      7 C02        -23.0220   -12.3470    14.5260 c3         1 YUC       0.188000
      8 C03        -22.3720   -13.0620    13.3600 ca         1 YUC      -0.129300
      9 C04        -22.2780   -12.4330    12.1110 ca         1 YUC      -0.056200
     10 C06        -22.3410   -10.9620    10.4210 cd         1 YUC      -0.041300
     11 C07        -22.7450    -9.6480     9.7900 c          1 YUC       0.720200
     12 C17        -19.6950   -11.4010     3.0050 c3         1 YUC      -0.338100
     13 C20        -19.5960   -11.6720     6.8430 ca         1 YUC      -0.013000
     14 C21        -18.6580   -10.7340     6.3160 cg         1 YUC       0.358000
     15 C23        -20.2350   -11.3910     8.0450 ca         1 YUC      -0.026000
     16 C24        -21.6730   -13.0410    10.9910 ca         1 YUC      -0.082800
     17 C25        -21.1430   -14.3310    11.1210 ca         1 YUC      -0.067000
     18 C26        -21.2450   -14.9670    12.3390 ca         1 YUC      -0.163000
     19 C27        -21.8510   -14.3400    13.4410 ca         1 YUC      -0.110000
     20 C29        -25.2510   -13.5870    14.4090 c5         1 YUC       0.087000
     21 C30        -26.6620   -13.0190    14.4270 cy         1 YUC       0.137000
     22 C31        -27.4730   -12.9820    15.7320 cy         1 YUC      -0.077900
     23 C32        -28.7400   -13.2970    14.9100 cy         1 YUC      -0.079700
     24 C33        -29.7080   -14.3120    15.4700 c3         1 YUC       0.160800
     25 C35        -27.8250   -13.7420    13.7520 cy         1 YUC      -0.077900
     26 C37        -25.2110   -11.3270    13.9870 c          1 YUC       0.690100
     27 N05        -22.6670   -11.1870    11.7260 na         1 YUC      -0.189700
     28 N15        -19.0960   -13.1420     4.9800 nu         1 YUC      -0.898100
     29 N22        -17.9060    -9.9620     5.9090 n1         1 YUC      -0.498000
     30 N28        -24.4690   -12.3730    14.4020 n          1 YUC      -0.444800
     31 N34        -30.6940   -14.6850    14.4680 n8         1 YUC      -0.994200
     32 O08        -22.5720    -9.5350     8.5660 o          1 YUC      -0.691000
     33 O09        -23.2260    -8.8150    10.5820 o          1 YUC      -0.691000
     34 O18        -19.0600   -13.9340     2.6220 o          1 YUC      -0.551500
     35 O19        -21.2870   -13.3740     3.6460 o          1 YUC      -0.551500
     36 O36        -26.4940   -11.6940    13.8940 os         1 YUC      -0.403100
     37 O38        -24.8390   -10.2040    13.7160 o          1 YUC      -0.530000
     38 S16        -19.8670   -13.0970     3.4940 s6         1 YUC       1.183100
     39 H121       -22.0410   -14.2280     8.3220 ha         1 YUC       0.120000
     40 H131       -20.9040   -14.7210     6.2100 ha         1 YUC       0.111000
     41 H013       -23.0500   -12.2520    16.6740 hc         1 YUC       0.037700
     42 H011       -22.8840   -13.8970    16.0650 hc         1 YUC       0.037700
     43 H012       -21.5120   -12.7940    15.9990 hc         1 YUC       0.037700
     44 H021       -22.7350   -11.2930    14.4780 h1         1 YUC       0.085700
     45 H171       -20.2120   -10.7620     3.7180 h1         1 YUC       0.106700
     46 H172       -18.6410   -11.1450     2.9580 h1         1 YUC       0.106700
     47 H173       -20.1550   -11.2980     2.0230 h1         1 YUC       0.106700
     48 H231       -20.0160   -10.4670     8.5600 ha         1 YUC       0.151000
     49 H251       -20.6550   -14.8210    10.2880 ha         1 YUC       0.106000
     50 H261       -20.8440   -15.9650    12.4600 ha         1 YUC       0.094000
     51 H271       -21.8910   -14.8800    14.3780 ha         1 YUC       0.091000
     52 H292       -25.0640   -14.1940    13.5150 h1         1 YUC       0.061200
     53 H291       -25.0550   -14.2040    15.2860 h1         1 YUC       0.061200
     54 H311       -27.1990   -13.8150    16.3840 hc         1 YUC       0.064700
     55 H312       -27.4420   -12.0580    16.3110 hc         1 YUC       0.064700
     56 H321       -29.2710   -12.3760    14.6520 hc         1 YUC       0.069700
     57 H331       -29.1490   -15.2100    15.7510 h1         1 YUC       0.024700
     58 H332       -30.1450   -13.9170    16.3990 h1         1 YUC       0.024700
     59 H351       -28.0690   -13.4350    12.7350 hc         1 YUC       0.064700
     60 H352       -27.6640   -14.8230    13.7610 hc         1 YUC       0.064700
     61 H051       -23.1850   -10.5160    12.2780 hn         1 YUC       0.393000
     62 H151       -18.4770   -13.9460     5.0310 hn         1 YUC       0.489000
     63 H1         -31.2980   -15.4090    14.8360 hn         1 YUC       0.391000
     64 H341       -31.2990   -13.8940    14.2800 hn         1 YUC       0.391000
@<TRIPOS>BOND
     1     1     2 1   
     2     1    10 2   
     3     1    16 1   
     4     2     3 ar  
     5     2    15 ar  
     6     3     4 ar  
     7     3    39 1   
     8     4     5 ar  
     9     4    40 1   
    10     5    13 ar  
    11     5    28 1   
    12     6     7 1   
    13     6    41 1   
    14     6    42 1   
    15     6    43 1   
    16     7     8 1   
    17     7    30 1   
    18     7    44 1   
    19     8     9 ar  
    20     8    19 ar  
    21     9    16 ar  
    22     9    27 1   
    23    10    11 1   
    24    10    27 1   
    25    11    32 1   
    26    11    33 1   
    27    12    38 1   
    28    12    45 1   
    29    12    46 1   
    30    12    47 1   
    31    13    14 1   
    32    13    15 ar  
    33    14    29 3   
    34    15    48 1   
    35    16    17 ar  
    36    17    18 ar  
    37    17    49 1   
    38    18    19 ar  
    39    18    50 1   
    40    19    51 1   
    41    20    21 1   
    42    20    30 1   
    43    20    52 1   
    44    20    53 1   
    45    21    22 1   
    46    21    25 1   
    47    21    36 1   
    48    22    23 1   
    49    22    54 1   
    50    22    55 1   
    51    23    24 1   
    52    23    25 1   
    53    23    56 1   
    54    24    31 1   
    55    24    57 1   
    56    24    58 1   
    57    25    59 1   
    58    25    60 1   
    59    26    30 1   
    60    26    36 1   
    61    26    37 2   
    62    27    61 1   
    63    28    38 1   
    64    28    62 1   
    65    31    63 1   
    66    31    64 1   
    67    34    38 2   
    68    35    38 2   
@<TRIPOS>SUBSTRUCTURE
     1 YUC         1 TEMP              0 ****  ****    0 ROOT
