@<TRIPOS>MOLECULE
YUD
   84    88     1     0     0
SMALL
No Charge or Current Charge


@<TRIPOS>ATOM
      1 C10         19.1420    -2.1500    14.8910 c3         1 YUD       0.216800
      2 C13         19.7260    -0.1660    16.4900 c3         1 YUD       0.098700
      3 C15         21.7960     0.6530    17.6560 c          1 YUD       0.639100
      4 C21         23.0240     2.3390    20.2220 c5         1 YUD      -0.147700
      5 C22         23.4450     3.8460    20.2670 c5         1 YUD       0.371300
      6 C24         21.1580     3.8440    19.9180 c5         1 YUD       0.152600
      7 C26         18.3190     0.4730    16.6520 c3         1 YUD      -0.043100
      8 C28         18.1220     0.3270    19.1870 ca         1 YUD      -0.102000
      9 C01         15.4430    -4.5750    13.5750 ca         1 YUD      -0.107000
     10 C02         16.1750    -3.9850    14.6230 ca         1 YUD      -0.020000
     11 C03         17.1950    -4.7150    15.2780 ca         1 YUD      -0.299500
     12 C04         17.4670    -6.0460    14.8880 ca         1 YUD      -0.004000
     13 C09         20.3540    -4.3170    15.1560 c3         1 YUD       0.207800
     14 C11         19.9870    -0.8590    15.1160 c3         1 YUD       0.153300
     15 C18         23.5120     1.8570    18.7940 c5         1 YUD       0.160300
     16 C19         24.4940     2.9910    18.3960 c5         1 YUD       0.152600
     17 C23         21.4600     2.4040    20.3880 c5         1 YUD      -0.097400
     18 C27         18.1170     1.1190    18.0210 ca         1 YUD      -0.083300
     19 C29         17.9460     0.9200    20.4490 ca         1 YUD      -0.114500
     20 C30         17.7580     2.3080    20.5550 ca         1 YUD      -0.115000
     21 C31         17.7450     3.1020    19.3970 ca         1 YUD      -0.114500
     22 C32         17.9270     2.5110    18.1340 ca         1 YUD      -0.102000
     23 C33         21.7870    -3.8590    14.7630 c3         1 YUD      -0.059700
     24 C34         22.5270    -4.9220    13.9010 c3         1 YUD      -0.075400
     25 C35         22.6160    -3.4280    15.9990 c3         1 YUD      -0.090100
     26 C36         16.1410    -7.8480    11.9040 c5         1 YUD      -0.079400
     27 C37         16.8690    -8.0070    13.2920 c5         1 YUD      -0.034100
     28 C38         16.7290    -6.6100    13.8370 ca         1 YUD      -0.100300
     29 C39         15.7430    -5.8930    13.1870 ca         1 YUD      -0.072300
     30 C40         15.0690    -6.7090    12.1070 c5         1 YUD       0.208600
     31 C42         22.7810    -6.2860    14.5830 c3         1 YUD      -0.090100
     32 N08         19.4840    -3.2910    15.7940 n3         1 YUD      -0.741500
     33 N14         20.7610     0.8360    16.7860 ns         1 YUD      -0.504900
     34 O06         17.3970    -2.8300    17.1740 o          1 YUD      -0.534500
     35 O07         18.6770    -5.0050    17.4950 o          1 YUD      -0.534500
     36 O12         19.7690     0.0670    14.0310 oh         1 YUD      -0.666000
     37 O16         22.0480    -0.3900    18.2390 o          1 YUD      -0.538000
     38 O17         22.4450     1.8470    17.8000 os         1 YUD      -0.454100
     39 O20         23.8940     4.1770    18.9430 os         1 YUD      -0.459000
     40 O25         22.2350     4.5850    20.5180 os         1 YUD      -0.440000
     41 O41         14.8510    -5.9670    10.9090 oh         1 YUD      -0.644000
     42 S05         18.1420    -3.9620    16.6130 sy         1 YUD       1.160600
     43 H102        18.0860    -1.8660    14.9790 h1         1 YUD       0.064700
     44 H101        19.2640    -2.4590    13.8440 h1         1 YUD       0.064700
     45 H131        19.8030    -0.9560    17.2500 h1         1 YUD       0.098700
     46 H221        24.2210     4.0560    21.0170 h2         1 YUD       0.079700
     47 H241        20.1920     4.2220    20.2790 h1         1 YUD       0.054700
     48 H242        21.1990     3.9490    18.8240 h1         1 YUD       0.054700
     49 H261        18.1680     1.2170    15.8600 hc         1 YUD       0.065700
     50 H262        17.5450    -0.2850    16.4970 hc         1 YUD       0.065700
     51 H281        18.2620    -0.7490    19.1150 ha         1 YUD       0.120000
     52 H011        14.6570    -4.0130    13.0770 ha         1 YUD       0.119000
     53 H021        15.9430    -2.9640    14.9230 ha         1 YUD       0.130000
     54 H041        18.2370    -6.6320    15.3870 ha         1 YUD       0.140000
     55 H091        19.8590    -4.7050    14.2550 h1         1 YUD       0.049200
     56 H092        20.4800    -5.1720    15.8320 h1         1 YUD       0.049200
     57 H111        21.0410    -1.1570    15.1110 h1         1 YUD       0.052700
     58 H181        24.0370     0.8910    18.8150 h1         1 YUD       0.086700
     59 H192        24.6160     3.0930    17.3090 h1         1 YUD       0.060200
     60 H191        25.4840     2.8440    18.8510 h1         1 YUD       0.060200
     61 H232        21.1820     2.2950    21.4430 hc         1 YUD       0.066200
     62 H231        20.8910     1.6420    19.8500 hc         1 YUD       0.066200
     63 H291        17.9540     0.3020    21.3450 ha         1 YUD       0.112000
     64 H301        17.6210     2.7660    21.5320 ha         1 YUD       0.110000
     65 H311        17.5970     4.1770    19.4770 ha         1 YUD       0.112000
     66 H321        17.9200     3.1380    17.2450 ha         1 YUD       0.120000
     67 H331        21.6910    -2.9840    14.1120 hc         1 YUD       0.043700
     68 H341        23.4910    -4.5080    13.5800 hc         1 YUD       0.038700
     69 H342        21.9510    -5.0950    12.9830 hc         1 YUD       0.038700
     70 H351        22.1260    -2.6060    16.5320 hc         1 YUD       0.044700
     71 H353        22.7330    -4.2570    16.7070 hc         1 YUD       0.044700
     72 H352        23.6140    -3.0870    15.6990 hc         1 YUD       0.044700
     73 H361        15.6890    -8.7840    11.5590 hc         1 YUD       0.063200
     74 H362        16.8680    -7.5500    11.1400 hc         1 YUD       0.063200
     75 H371        16.3630    -8.7390    13.9330 hc         1 YUD       0.060200
     76 H372        17.9120    -8.3250    13.1790 hc         1 YUD       0.060200
     77 H401        14.1250    -7.1230    12.4900 h1         1 YUD       0.045700
     78 H421        23.3090    -6.9570    13.8950 hc         1 YUD       0.033367
     79 H422        23.3990    -6.1730    15.4810 hc         1 YUD       0.033367
     80 H423        21.8390    -6.7720    14.8650 hc         1 YUD       0.033367
     81 H141        20.6510     1.7770    16.4330 hn         1 YUD       0.322500
     82 H121        20.4580     0.7630    14.1070 ho         1 YUD       0.451000
     83 H411        14.2290    -5.2430    11.1390 ho         1 YUD       0.448000
     84 H211        23.5010     1.7630    21.0220 hc         1 YUD       0.077700
@<TRIPOS>BOND
     1     1    14 1   
     2     1    32 1   
     3     1    43 1   
     4     1    44 1   
     5     2     7 1   
     6     2    14 1   
     7     2    33 1   
     8     2    45 1   
     9     3    33 1   
    10     3    37 2   
    11     3    38 1   
    12     4     5 1   
    13     4    15 1   
    14     4    17 1   
    15     4    84 1   
    16     5    39 1   
    17     5    40 1   
    18     5    46 1   
    19     6    17 1   
    20     6    40 1   
    21     6    47 1   
    22     6    48 1   
    23     7    18 1   
    24     7    49 1   
    25     7    50 1   
    26     8    18 ar  
    27     8    19 ar  
    28     8    51 1   
    29     9    10 ar  
    30     9    29 ar  
    31     9    52 1   
    32    10    11 ar  
    33    10    53 1   
    34    11    12 ar  
    35    11    42 1   
    36    12    28 ar  
    37    12    54 1   
    38    13    23 1   
    39    13    32 1   
    40    13    55 1   
    41    13    56 1   
    42    14    36 1   
    43    14    57 1   
    44    15    16 1   
    45    15    38 1   
    46    15    58 1   
    47    16    39 1   
    48    16    59 1   
    49    16    60 1   
    50    17    61 1   
    51    17    62 1   
    52    18    22 ar  
    53    19    20 ar  
    54    19    63 1   
    55    20    21 ar  
    56    20    64 1   
    57    21    22 ar  
    58    21    65 1   
    59    22    66 1   
    60    23    24 1   
    61    23    25 1   
    62    23    67 1   
    63    24    31 1   
    64    24    68 1   
    65    24    69 1   
    66    25    70 1   
    67    25    71 1   
    68    25    72 1   
    69    26    27 1   
    70    26    30 1   
    71    26    73 1   
    72    26    74 1   
    73    27    28 1   
    74    27    75 1   
    75    27    76 1   
    76    28    29 ar  
    77    29    30 1   
    78    30    41 1   
    79    30    77 1   
    80    31    78 1   
    81    31    79 1   
    82    31    80 1   
    83    32    42 1   
    84    33    81 1   
    85    34    42 2   
    86    35    42 2   
    87    36    82 1   
    88    41    83 1   
@<TRIPOS>SUBSTRUCTURE
     1 YUD         1 TEMP              0 ****  ****    0 ROOT
