@<TRIPOS>MOLECULE
YUD
   84    88     1     0     0
SMALL
abcg2


@<TRIPOS>ATOM
      1 C10         19.1440    -1.6450    14.4380 c3         1 YUD       0.216800
      2 C13         19.7270     0.0400    16.2990 c3         1 YUD       0.098700
      3 C15         21.6280     0.5750    17.7640 c          1 YUD       0.639100
      4 C21         22.9010     2.0650    20.4090 c5         1 YUD      -0.147700
      5 C22         23.5260     3.4810    20.4100 c5         1 YUD       0.371300
      6 C24         21.2860     3.7770    20.0330 c5         1 YUD       0.152600
      7 C26         18.3960     0.7860    16.4360 c3         1 YUD      -0.043100
      8 C28         17.9320     0.3100    18.8700 ca         1 YUD      -0.102000
      9 C01         15.5080    -4.8310    13.5350 ca         1 YUD      -0.107000
     10 C02         16.2720    -4.0230    14.3660 ca         1 YUD      -0.020000
     11 C03         17.2970    -4.5890    15.1180 ca         1 YUD      -0.299500
     12 C04         17.5840    -5.9500    15.0610 ca         1 YUD      -0.004000
     13 C09         20.3270    -3.8300    14.5070 c3         1 YUD       0.207800
     14 C11         20.0120    -0.4620    14.8740 c3         1 YUD       0.153300
     15 C18         23.3950     1.4380    19.0960 c5         1 YUD       0.160300
     16 C19         24.6040     2.3000    18.7830 c5         1 YUD       0.152600
     17 C23         21.4060     2.3510    20.5510 c5         1 YUD      -0.097400
     18 C27         18.1470     1.2370    17.8500 ca         1 YUD      -0.083300
     19 C29         17.7130     0.7260    20.1750 ca         1 YUD      -0.114500
     20 C30         17.7020     2.0810    20.4860 ca         1 YUD      -0.115000
     21 C31         17.9130     3.0120    19.4800 ca         1 YUD      -0.114500
     22 C32         18.1390     2.5910    18.1750 ca         1 YUD      -0.102000
     23 C33         21.8020    -3.4380    14.5300 c3         1 YUD      -0.059700
     24 C34         22.6200    -4.4400    13.7060 c3         1 YUD      -0.075400
     25 C35         22.3260    -3.2870    15.9510 c3         1 YUD      -0.090100
     26 C36         16.1450    -8.3740    12.6420 c5         1 YUD      -0.079400
     27 C37         16.9190    -8.2180    13.9590 c5         1 YUD      -0.034100
     28 C38         16.8200    -6.7410    14.2220 ca         1 YUD      -0.100300
     29 C39         15.7870    -6.1860    13.4750 ca         1 YUD      -0.072300
     30 C40         15.0920    -7.2610    12.6730 c5         1 YUD       0.208600
     31 C42         22.6980    -5.8550    14.2680 c3         1 YUD      -0.090100
     32 N08         19.4440    -2.8680    15.1790 n3         1 YUD      -0.741500
     33 N14         20.8050     0.8970    16.7500 ns         1 YUD      -0.504900
     34 O06         17.4300    -2.4520    16.6210 o          1 YUD      -0.534500
     35 O07         18.9610    -4.3740    17.1200 o          1 YUD      -0.534500
     36 O12         19.8120     0.5370    13.8990 oh         1 YUD      -0.666000
     37 O16         21.6370    -0.4840    18.3590 o          1 YUD      -0.538000
     38 O17         22.4620     1.5910    18.0290 os         1 YUD      -0.454100
     39 O20         24.2590     3.5980    19.2120 os         1 YUD      -0.459000
     40 O25         22.4960     4.4070    20.4430 os         1 YUD      -0.440000
     41 O41         14.7110    -6.8800    11.3780 oh         1 YUD      -0.644000
     42 S05         18.2820    -3.5330    16.1480 sy         1 YUD       1.160600
     43 H102        18.0870    -1.3850    14.5120 h1         1 YUD       0.064700
     44 H101        19.3370    -1.8340    13.3780 h1         1 YUD       0.064700
     45 H131        19.7220    -0.8300    16.9560 h1         1 YUD       0.098700
     46 H221        24.1830     3.6760    21.2660 h2         1 YUD       0.079700
     47 H241        20.4520     4.3270    20.4690 h1         1 YUD       0.054700
     48 H242        21.1730     3.8040    18.9440 h1         1 YUD       0.054700
     49 H261        18.3940     1.6530    15.7720 hc         1 YUD       0.065700
     50 H262        17.5840     0.1360    16.1050 hc         1 YUD       0.065700
     51 H281        17.9240    -0.7480    18.6380 ha         1 YUD       0.120000
     52 H011        14.7060    -4.3960    12.9520 ha         1 YUD       0.119000
     53 H021        16.0590    -2.9640    14.4250 ha         1 YUD       0.130000
     54 H041        18.3830    -6.3790    15.6520 ha         1 YUD       0.140000
     55 H091        19.9910    -3.9560    13.4710 h1         1 YUD       0.049200
     56 H092        20.2240    -4.8010    14.9910 h1         1 YUD       0.049200
     57 H111        21.0580    -0.7930    14.8710 h1         1 YUD       0.052700
     58 H181        23.6620     0.3890    19.2130 h1         1 YUD       0.086700
     59 H192        24.8590     2.3240    17.7230 h1         1 YUD       0.060200
     60 H191        25.4720     1.9120    19.3320 h1         1 YUD       0.060200
     61 H232        21.1300     2.3150    21.6060 hc         1 YUD       0.066200
     62 H231        20.7510     1.6530    20.0340 hc         1 YUD       0.066200
     63 H291        17.5450    -0.0090    20.9530 ha         1 YUD       0.112000
     64 H301        17.5290     2.4060    21.5040 ha         1 YUD       0.110000
     65 H311        17.9070     4.0700    19.7090 ha         1 YUD       0.112000
     66 H321        18.3030     3.3270    17.3960 ha         1 YUD       0.120000
     67 H331        21.9080    -2.4760    14.0180 hc         1 YUD       0.043700
     68 H341        23.6340    -4.0440    13.6050 hc         1 YUD       0.038700
     69 H342        22.2120    -4.4770    12.6910 hc         1 YUD       0.038700
     70 H351        21.8140    -2.4910    16.4890 hc         1 YUD       0.044700
     71 H353        22.1940    -4.2050    16.5280 hc         1 YUD       0.044700
     72 H352        23.3910    -3.0480    15.9460 hc         1 YUD       0.044700
     73 H361        15.7090    -9.3640    12.5150 hc         1 YUD       0.063200
     74 H362        16.8170    -8.1890    11.8000 hc         1 YUD       0.063200
     75 H371        16.4360    -8.7780    14.7650 hc         1 YUD       0.060200
     76 H372        17.9480    -8.5720    13.8960 hc         1 YUD       0.060200
     77 H401        14.2210    -7.6040    13.2500 h1         1 YUD       0.045700
     78 H421        23.2960    -6.4900    13.6130 hc         1 YUD       0.033367
     79 H422        23.1660    -5.8760    15.2530 hc         1 YUD       0.033367
     80 H423        21.7180    -6.3250    14.3590 hc         1 YUD       0.033367
     81 H141        20.8450     1.8400    16.3930 hn         1 YUD       0.322500
     82 H121        20.5230     1.1830    13.9630 ho         1 YUD       0.451000
     83 H411        13.8720    -6.4120    11.4250 ho         1 YUD       0.448000
     84 H211        23.2770     1.4680    21.2400 hc         1 YUD       0.077700
@<TRIPOS>BOND
     1     1    14 1   
     2     1    32 1   
     3     1    43 1   
     4     1    44 1   
     5     2     7 1   
     6     2    14 1   
     7     2    33 1   
     8     2    45 1   
     9     3    33 1   
    10     3    37 2   
    11     3    38 1   
    12     4     5 1   
    13     4    15 1   
    14     4    17 1   
    15     4    84 1   
    16     5    39 1   
    17     5    40 1   
    18     5    46 1   
    19     6    17 1   
    20     6    40 1   
    21     6    47 1   
    22     6    48 1   
    23     7    18 1   
    24     7    49 1   
    25     7    50 1   
    26     8    18 ar  
    27     8    19 ar  
    28     8    51 1   
    29     9    10 ar  
    30     9    29 ar  
    31     9    52 1   
    32    10    11 ar  
    33    10    53 1   
    34    11    12 ar  
    35    11    42 1   
    36    12    28 ar  
    37    12    54 1   
    38    13    23 1   
    39    13    32 1   
    40    13    55 1   
    41    13    56 1   
    42    14    36 1   
    43    14    57 1   
    44    15    16 1   
    45    15    38 1   
    46    15    58 1   
    47    16    39 1   
    48    16    59 1   
    49    16    60 1   
    50    17    61 1   
    51    17    62 1   
    52    18    22 ar  
    53    19    20 ar  
    54    19    63 1   
    55    20    21 ar  
    56    20    64 1   
    57    21    22 ar  
    58    21    65 1   
    59    22    66 1   
    60    23    24 1   
    61    23    25 1   
    62    23    67 1   
    63    24    31 1   
    64    24    68 1   
    65    24    69 1   
    66    25    70 1   
    67    25    71 1   
    68    25    72 1   
    69    26    27 1   
    70    26    30 1   
    71    26    73 1   
    72    26    74 1   
    73    27    28 1   
    74    27    75 1   
    75    27    76 1   
    76    28    29 ar  
    77    29    30 1   
    78    30    41 1   
    79    30    77 1   
    80    31    78 1   
    81    31    79 1   
    82    31    80 1   
    83    32    42 1   
    84    33    81 1   
    85    34    42 2   
    86    35    42 2   
    87    36    82 1   
    88    41    83 1   
@<TRIPOS>SUBSTRUCTURE
     1 YUD         1 TEMP              0 ****  ****    0 ROOT
