@<TRIPOS>MOLECULE
YUF
   40    43     1     0     0
SMALL
No Charge or Current Charge


@<TRIPOS>ATOM
      1 C11         12.3900   -14.1900   -18.6490 cc         1 YUF       0.397700
      2 C13         10.9210   -12.4660   -19.4900 ca         1 YUF       0.050800
      3 C15         10.2980   -10.1260   -19.1880 ca         1 YUF      -0.101500
      4 C16         10.5920    -9.8710   -20.5380 ca         1 YUF      -0.121000
      5 C17         11.0530   -10.9100   -21.3640 ca         1 YUF      -0.101500
      6 C18         11.2200   -12.2040   -20.8410 ca         1 YUF      -0.092500
      7 C19          8.2630   -17.1040   -15.4610 cp         1 YUF       0.014000
      8 C20          8.4730   -18.5110   -15.4430 ca         1 YUF       0.127000
      9 C22          7.8080   -19.3220   -14.5070 ca         1 YUF      -0.115000
     10 C23          6.9180   -18.7590   -13.5740 ca         1 YUF      -0.089300
     11 C24          6.6970   -17.3710   -13.5860 ca         1 YUF      -0.115000
     12 C25          7.3580   -16.5570   -14.5200 ca         1 YUF      -0.094000
     13 C26          6.2050   -19.6430   -12.5620 c3         1 YUF      -0.038800
     14 C1           8.1870   -15.2970   -17.2330 ca         1 YUF      -0.083000
     15 C14         10.4640   -11.4190   -18.6630 ca         1 YUF      -0.092500
     16 C2           8.9480   -16.1970   -16.4330 cp         1 YUF      -0.090000
     17 C3          10.3630   -16.1940   -16.5650 ca         1 YUF      -0.058000
     18 C4          10.9670   -15.3130   -17.4720 ca         1 YUF       0.037400
     19 C5          10.2100   -14.4520   -18.2230 ca         1 YUF      -0.026200
     20 C6           8.8020   -14.4180   -18.1560 ca         1 YUF      -0.116600
     21 C7           7.9560   -13.5260   -19.0290 c          1 YUF       0.717600
     22 N10         11.1090   -13.7450   -18.9710 na         1 YUF      -0.076400
     23 N12         12.3330   -15.1750   -17.7260 nd         1 YUF      -0.598100
     24 O8           7.1090   -12.8320   -18.4850 o          1 YUF      -0.707500
     25 O9           8.0760   -13.6220   -20.2420 o          1 YUF      -0.707500
     26 Cl21         9.5280   -19.3120   -16.6100 cl         1 YUF      -0.207000
     27 H30         13.2870   -13.7410   -19.0600 h5         1 YUF       0.044800
     28 H32          9.9430    -9.3210   -18.5470 ha         1 YUF       0.103000
     29 H33         10.4630    -8.8700   -20.9430 ha         1 YUF       0.098000
     30 H34         11.2820   -10.7130   -22.4090 ha         1 YUF       0.103000
     31 H35         11.5770   -13.0040   -21.4850 ha         1 YUF       0.125000
     32 H36          7.9810   -20.3950   -14.5120 ha         1 YUF       0.114000
     33 H37          6.0120   -16.9210   -12.8700 ha         1 YUF       0.105000
     34 H38          7.1780   -15.4840   -14.5110 ha         1 YUF       0.129000
     35 H41          6.8050   -19.7550   -11.6510 hc         1 YUF       0.035033
     36 H39          5.2350   -19.2210   -12.2750 hc         1 YUF       0.035033
     37 H40          6.0200   -20.6450   -12.9680 hc         1 YUF       0.035033
     38 H27          7.1020   -15.2990   -17.1480 ha         1 YUF       0.125000
     39 H31         10.2400   -11.6080   -17.6160 ha         1 YUF       0.125000
     40 H28         10.9770   -16.8560   -15.9610 ha         1 YUF       0.112000
@<TRIPOS>BOND
     1     1    22 1   
     2     1    23 2   
     3     1    27 1   
     4     2     6 ar  
     5     2    15 ar  
     6     2    22 1   
     7     3     4 ar  
     8     3    15 ar  
     9     3    28 1   
    10     4     5 ar  
    11     4    29 1   
    12     5     6 ar  
    13     5    30 1   
    14     6    31 1   
    15     7     8 ar  
    16     7    12 ar  
    17     7    16 1   
    18     8     9 ar  
    19     8    26 1   
    20     9    10 ar  
    21     9    32 1   
    22    10    11 ar  
    23    10    13 1   
    24    11    12 ar  
    25    11    33 1   
    26    12    34 1   
    27    13    35 1   
    28    13    36 1   
    29    13    37 1   
    30    14    16 ar  
    31    14    20 ar  
    32    14    38 1   
    33    15    39 1   
    34    16    17 ar  
    35    17    18 ar  
    36    17    40 1   
    37    18    19 ar  
    38    18    23 1   
    39    19    20 ar  
    40    19    22 1   
    41    20    21 1   
    42    21    24 1   
    43    21    25 1   
@<TRIPOS>SUBSTRUCTURE
     1 YUF         1 TEMP              0 ****  ****    0 ROOT
