@<TRIPOS>MOLECULE
YUF
   40    43     1     0     0
SMALL
abcg2


@<TRIPOS>ATOM
      1 C11         12.3130   -14.1250   -18.4880 cc         1 YUF       0.397700
      2 C13         10.9010   -12.3820   -19.4660 ca         1 YUF       0.050800
      3 C15         10.1430   -10.1080   -19.5060 ca         1 YUF      -0.101500
      4 C16         10.6390    -9.9630   -20.7960 ca         1 YUF      -0.121000
      5 C17         11.2750   -11.0310   -21.4120 ca         1 YUF      -0.101500
      6 C18         11.4040   -12.2450   -20.7520 ca         1 YUF      -0.092500
      7 C19          8.2870   -17.1140   -15.4510 cp         1 YUF       0.014000
      8 C20          8.3210   -18.5010   -15.5730 ca         1 YUF       0.127000
      9 C22          7.6600   -19.3370   -14.6850 ca         1 YUF      -0.115000
     10 C23          6.9270   -18.8090   -13.6280 ca         1 YUF      -0.089300
     11 C24          6.8670   -17.4240   -13.5020 ca         1 YUF      -0.115000
     12 C25          7.5330   -16.6010   -14.3940 ca         1 YUF      -0.094000
     13 C26          6.2430   -19.7110   -12.6440 c3         1 YUF      -0.038800
     14 C1           8.2240   -15.2250   -17.0660 ca         1 YUF      -0.083000
     15 C14         10.2820   -11.3120   -18.8330 ca         1 YUF      -0.092500
     16 C2           8.9790   -16.1880   -16.3750 cp         1 YUF      -0.090000
     17 C3          10.3540   -16.2410   -16.5420 ca         1 YUF      -0.058000
     18 C4          10.9460   -15.3070   -17.3850 ca         1 YUF       0.037400
     19 C5          10.1670   -14.3580   -18.0700 ca         1 YUF      -0.026200
     20 C6           8.7760   -14.3110   -17.9520 ca         1 YUF      -0.116600
     21 C7           7.8630   -13.4380   -18.8040 c          1 YUF       0.717600
     22 N10         11.0850   -13.6010   -18.7720 na         1 YUF      -0.076400
     23 N12         12.2800   -15.1370   -17.6790 nd         1 YUF      -0.598100
     24 O8           6.9040   -12.9010   -18.2230 o          1 YUF      -0.707500
     25 O9           8.1540   -13.3930   -20.0120 o          1 YUF      -0.707500
     26 CL21         9.1650   -19.2460   -16.8960 cl         1 YUF      -0.207000
     27 H30         13.2090   -13.6880   -18.9070 h5         1 YUF       0.044800
     28 H32          9.6550    -9.2770   -19.0150 ha         1 YUF       0.103000
     29 H33         10.5330    -9.0200   -21.3150 ha         1 YUF       0.098000
     30 H34         11.6670   -10.9250   -22.4160 ha         1 YUF       0.103000
     31 H35         11.8820   -13.0860   -21.2390 ha         1 YUF       0.125000
     32 H36          7.7080   -20.4100   -14.8240 ha         1 YUF       0.114000
     33 H37          6.2960   -16.9810   -12.6940 ha         1 YUF       0.105000
     34 H38          7.4800   -15.5270   -14.2690 ha         1 YUF       0.129000
     35 H41          6.8820   -19.8950   -11.7780 hc         1 YUF       0.035033
     36 H39          5.3190   -19.2670   -12.2740 hc         1 YUF       0.035033
     37 H40          6.0040   -20.6780   -13.0850 hc         1 YUF       0.035033
     38 H27          7.1490   -15.2220   -16.9310 ha         1 YUF       0.125000
     39 H31          9.9110   -11.4180   -17.8210 ha         1 YUF       0.125000
     40 H28         10.9610   -16.9680   -16.0180 ha         1 YUF       0.112000
@<TRIPOS>BOND
     1     1    22 1   
     2     1    23 2   
     3     1    27 1   
     4     2     6 ar  
     5     2    15 ar  
     6     2    22 1   
     7     3     4 ar  
     8     3    15 ar  
     9     3    28 1   
    10     4     5 ar  
    11     4    29 1   
    12     5     6 ar  
    13     5    30 1   
    14     6    31 1   
    15     7     8 ar  
    16     7    12 ar  
    17     7    16 1   
    18     8     9 ar  
    19     8    26 1   
    20     9    10 ar  
    21     9    32 1   
    22    10    11 ar  
    23    10    13 1   
    24    11    12 ar  
    25    11    33 1   
    26    12    34 1   
    27    13    35 1   
    28    13    36 1   
    29    13    37 1   
    30    14    16 ar  
    31    14    20 ar  
    32    14    38 1   
    33    15    39 1   
    34    16    17 ar  
    35    17    18 ar  
    36    17    40 1   
    37    18    19 ar  
    38    18    23 1   
    39    19    20 ar  
    40    19    22 1   
    41    20    21 1   
    42    21    24 1   
    43    21    25 1   
@<TRIPOS>SUBSTRUCTURE
     1 YUF         1 TEMP              0 ****  ****    0 ROOT
