@<TRIPOS>MOLECULE
YUG
   24    25     1     0     0
SMALL
abcg2


@<TRIPOS>ATOM
      1 O            0.2160    -0.9970    -0.9380 os         1 YUG      -0.222200
      2 C1          -0.8280    -0.2060    -0.5890 ca         1 YUG       0.209100
      3 C2          -2.0650    -0.8290    -0.4680 ca         1 YUG      -0.102900
      4 C3          -3.2110    -0.1020    -0.1340 ca         1 YUG       0.230100
      5 O3          -4.3560    -0.7740    -0.0370 oh         1 YUG      -0.503100
      6 C4          -3.0720     1.2720     0.0840 ca         1 YUG      -0.153900
      7 BR3          5.8710     0.9640    -0.4160 br         1 YUG      -0.076100
      8 C5          -1.8390     1.8890    -0.0350 ca         1 YUG       0.005000
      9 C6          -0.7130     1.1600    -0.3710 ca         1 YUG      -0.219000
     10 C7           1.4860    -0.5180    -0.8050 ca         1 YUG       0.126100
     11 C8           2.1170    -0.5180     0.4350 ca         1 YUG      -0.042900
     12 BR2         -2.2080    -2.6750    -0.7520 br         1 YUG      -0.041100
     13 C9           3.4260    -0.0760     0.5580 ca         1 YUG      -0.050000
     14 C10          4.0920     0.3650    -0.5760 ca         1 YUG      -0.023900
     15 BR1          1.1980    -1.1430     1.9460 br         1 YUG      -0.050100
     16 C11          3.4790     0.3650    -1.8190 ca         1 YUG      -0.065000
     17 C12          2.1690    -0.0750    -1.9250 ca         1 YUG      -0.111000
     18 H1          -5.1010    -0.1970     0.1730 ho         1 YUG       0.487000
     19 H2          -1.7440     2.9530     0.1320 ha         1 YUG       0.133000
     20 H3           0.2370     1.6680    -0.4680 ha         1 YUG       0.135000
     21 H4           3.9140    -0.0790     1.5230 ha         1 YUG       0.149000
     22 H5           4.0000     0.7050    -2.7030 ha         1 YUG       0.139000
     23 H6           1.6750    -0.0810    -2.8880 ha         1 YUG       0.140000
     24 BR4         -4.5860     2.3010     0.5420 br         1 YUG      -0.091100
@<TRIPOS>BOND
     1     1     2 1   
     2     1    10 1   
     3     2     3 ar  
     4     2     9 ar  
     5     3     4 ar  
     6     3    12 1   
     7     4     5 1   
     8     4     6 ar  
     9     5    18 1   
    10     6     8 ar  
    11     6    24 1   
    12     7    14 1   
    13     8     9 ar  
    14     8    19 1   
    15     9    20 1   
    16    10    11 ar  
    17    10    17 ar  
    18    11    13 ar  
    19    11    15 1   
    20    13    14 ar  
    21    13    21 1   
    22    14    16 ar  
    23    16    17 ar  
    24    16    22 1   
    25    17    23 1   
@<TRIPOS>SUBSTRUCTURE
     1 YUG         1 TEMP              0 ****  ****    0 ROOT
