@<TRIPOS>MOLECULE
YUG
   24    25     1     0     0
SMALL
No Charge or Current Charge


@<TRIPOS>ATOM
      1 O            0.2210    -0.9190    -1.1470 os         1 YUG      -0.222200
      2 C1          -0.8730    -0.1960    -0.7190 ca         1 YUG       0.209100
      3 C2          -2.0910    -0.8650    -0.4960 ca         1 YUG      -0.102900
      4 C3          -3.2160    -0.1420    -0.0550 ca         1 YUG       0.230100
      5 O3          -4.4000    -0.7830     0.1700 oh         1 YUG      -0.503100
      6 C4          -3.1230     1.2470     0.1560 ca         1 YUG      -0.153900
      7 Br3          5.9570     0.9310    -0.2300 br         1 YUG      -0.076100
      8 C5          -1.9090     1.9150    -0.0730 ca         1 YUG       0.005000
      9 C6          -0.7860     1.1950    -0.5120 ca         1 YUG      -0.219000
     10 C7           1.5120    -0.5060    -0.9200 ca         1 YUG       0.126100
     11 C8           2.0560    -0.5010     0.3830 ca         1 YUG      -0.042900
     12 Br2         -2.2030    -2.7660    -0.7760 br         1 YUG      -0.041100
     13 C9           3.3800    -0.0710     0.5850 ca         1 YUG      -0.050000
     14 C10          4.1570     0.3470    -0.5090 ca         1 YUG      -0.023900
     15 Br1          1.0320    -1.0930     1.8960 br         1 YUG      -0.050100
     16 C11          3.6190     0.3330    -1.8080 ca         1 YUG      -0.065000
     17 C12          2.2960    -0.0970    -2.0120 ca         1 YUG      -0.111000
     18 H1          -5.0460    -0.1080     0.4670 ho         1 YUG       0.487000
     19 H2          -1.8380     2.9890     0.0870 ha         1 YUG       0.133000
     20 H3           0.1460     1.7250    -0.6910 ha         1 YUG       0.135000
     21 H4           3.8040    -0.0660     1.5870 ha         1 YUG       0.149000
     22 H5           4.2240     0.6540    -2.6530 ha         1 YUG       0.139000
     23 H6           1.8760    -0.1080    -3.0150 ha         1 YUG       0.140000
     24 Br4         -4.6410     2.2570     0.7560 br         1 YUG      -0.091100
@<TRIPOS>BOND
     1     1     2 1   
     2     1    10 1   
     3     2     3 ar  
     4     2     9 ar  
     5     3     4 ar  
     6     3    12 1   
     7     4     5 1   
     8     4     6 ar  
     9     5    18 1   
    10     6     8 ar  
    11     6    24 1   
    12     7    14 1   
    13     8     9 ar  
    14     8    19 1   
    15     9    20 1   
    16    10    11 ar  
    17    10    17 ar  
    18    11    13 ar  
    19    11    15 1   
    20    13    14 ar  
    21    13    21 1   
    22    14    16 ar  
    23    16    17 ar  
    24    16    22 1   
    25    17    23 1   
@<TRIPOS>SUBSTRUCTURE
     1 YUG         1 TEMP              0 ****  ****    0 ROOT
