@<TRIPOS>MOLECULE
YUH
   55    59     1     0     0
SMALL
abcg2


@<TRIPOS>ATOM
      1 C10        -20.6010   -11.4560     7.8400 cc         1 YUH      -0.029000
      2 C11        -20.1390   -11.7640     6.6000 cd         1 YUH      -0.352200
      3 C15        -21.7360   -13.5240     7.9660 cd         1 YUH      -0.076400
      4 C17        -23.0350    -9.6820     9.7280 c          1 YUH       0.720200
      5 N20        -22.7480   -11.0810    11.7530 na         1 YUH      -0.191700
      6 C21        -22.2770   -12.2820    12.1810 ca         1 YUH      -0.057200
      7 C24        -26.5130   -13.0100    14.5950 cy         1 YUH       0.137000
      8 C25        -27.3410   -13.0110    15.8910 cy         1 YUH      -0.077900
      9 C26        -28.5760   -13.4090    15.0560 cy         1 YUH      -0.080700
     10 O30        -26.4280   -11.6840    14.0480 os         1 YUH      -0.404100
     11 C31        -25.1680   -11.2390    14.1180 c          1 YUH       0.691100
     12 O32        -24.8680   -10.1030    13.8200 o          1 YUH      -0.529000
     13 C01        -22.4170   -12.5570    15.9960 c3         1 YUH      -0.094100
     14 C02        -22.9120   -12.1200    14.6240 c3         1 YUH       0.188000
     15 C03        -22.2690   -12.8490    13.4630 ca         1 YUH      -0.132300
     16 C04        -21.6850   -14.0970    13.5770 ca         1 YUH      -0.111000
     17 C05        -21.1190   -14.7590    12.4740 ca         1 YUH      -0.168000
     18 C06        -21.1300   -14.1900    11.2190 ca         1 YUH      -0.066000
     19 C07        -21.7220   -12.9310    11.0560 ca         1 YUH      -0.090800
     20 C08        -21.8980   -12.0580     9.9340 cc         1 YUH      -0.146200
     21 C09        -21.4330   -12.3460     8.5760 cc         1 YUH      -0.032000
     22 C12        -20.4660   -13.0100     5.9580 c          1 YUH       0.551200
     23 C16        -22.5350   -10.9320    10.4100 cd         1 YUH      -0.054300
     24 C23        -25.0680   -13.4880    14.5940 c5         1 YUH       0.087000
     25 C27        -29.4970   -14.4680    15.6150 c3         1 YUH       0.160800
     26 C29        -27.6200   -13.8160    13.9170 cy         1 YUH      -0.077900
     27 N14        -21.2710   -13.8240     6.7290 ns         1 YUH      -0.366100
     28 N22        -24.3600   -12.2300    14.5460 n          1 YUH      -0.444800
     29 O13        -20.0940   -13.3680     4.8430 o          1 YUH      -0.616000
     30 O18        -22.9200    -9.6330     8.4920 o          1 YUH      -0.695000
     31 O19        -23.5270    -8.8260    10.4900 o          1 YUH      -0.695000
     32 H101       -20.3200   -10.5150     8.2930 ha         1 YUH       0.203000
     33 H111       -19.5000   -11.0770     6.0610 ha         1 YUH       0.194000
     34 H151       -22.3660   -14.2760     8.4200 h4         1 YUH       0.192000
     35 H201       -23.2480   -10.3940    12.3000 hn         1 YUH       0.390000
     36 H252       -27.3720   -12.0820    16.4610 hc         1 YUH       0.063950
     37 H261       -29.1540   -12.5220    14.7760 hc         1 YUH       0.069700
     38 H012       -22.8890   -11.9490    16.7660 hc         1 YUH       0.037033
     39 H013       -22.6380   -13.6020    16.2110 hc         1 YUH       0.037033
     40 H011       -21.3390   -12.4220    16.0690 hc         1 YUH       0.037033
     41 H021       -22.6850   -11.0550    14.5270 h1         1 YUH       0.084700
     42 H041       -21.6480   -14.5870    14.5410 ha         1 YUH       0.089000
     43 H051       -20.6660   -15.7300    12.6220 ha         1 YUH       0.092000
     44 H061       -20.6840   -14.7070    10.3780 ha         1 YUH       0.103000
     45 H232       -24.8450   -14.1090    13.7190 h1         1 YUH       0.060700
     46 H231       -24.8340   -14.0630    15.4890 h1         1 YUH       0.060700
     47 H271       -28.8960   -15.3340    15.9100 h1         1 YUH       0.024200
     48 H272       -29.9630   -14.0870    16.5360 h1         1 YUH       0.024200
     49 H292       -27.8690   -13.5420    12.8920 hc         1 YUH       0.063950
     50 H291       -27.3920   -14.8840    13.9480 hc         1 YUH       0.063950
     51 H141       -21.5330   -14.7130     6.3260 hn         1 YUH       0.306500
     52 H281       -31.0220   -15.6490    14.9740 hn         1 YUH       0.390500
     53 H282       -31.0950   -14.1410    14.4070 hn         1 YUH       0.390500
     54 N28        -30.4530   -14.8980    14.6060 n8         1 YUH      -0.994200
     55 H251       -27.0270   -13.8210    16.5520 hc         1 YUH       0.063950
@<TRIPOS>BOND
     1     1     2 2   
     2     1    21 1   
     3     1    32 1   
     4     2    22 1   
     5     2    33 1   
     6     3    21 2   
     7     3    27 1   
     8     3    34 1   
     9     4    23 1   
    10     4    30 1   
    11     4    31 1   
    12     5     6 1   
    13     5    23 1   
    14     5    35 1   
    15     6    15 ar  
    16     6    19 ar  
    17     7     8 1   
    18     7    10 1   
    19     7    24 1   
    20     7    26 1   
    21     8     9 1   
    22     8    36 1   
    23     8    55 1   
    24     9    25 1   
    25     9    26 1   
    26     9    37 1   
    27    10    11 1   
    28    11    12 2   
    29    11    28 1   
    30    13    14 1   
    31    13    38 1   
    32    13    39 1   
    33    13    40 1   
    34    14    15 1   
    35    14    28 1   
    36    14    41 1   
    37    15    16 ar  
    38    16    17 ar  
    39    16    42 1   
    40    17    18 ar  
    41    17    43 1   
    42    18    19 ar  
    43    18    44 1   
    44    19    20 1   
    45    20    21 1   
    46    20    23 2   
    47    22    27 1   
    48    22    29 2   
    49    24    28 1   
    50    24    45 1   
    51    24    46 1   
    52    25    47 1   
    53    25    48 1   
    54    25    54 1   
    55    26    49 1   
    56    26    50 1   
    57    27    51 1   
    58    52    54 1   
    59    53    54 1   
@<TRIPOS>SUBSTRUCTURE
     1 YUH         1 TEMP              0 ****  ****    0 ROOT
