@<TRIPOS>MOLECULE
YUH
   55    59     1     0     0
SMALL
No Charge or Current Charge


@<TRIPOS>ATOM
      1 C10        -20.8250   -11.1400     7.6880 cc         1 YUH      -0.029000
      2 C11        -20.2780   -11.3680     6.4390 cd         1 YUH      -0.352200
      3 C15        -21.0370   -13.5340     8.0140 cd         1 YUH      -0.076400
      4 C17        -23.2370    -9.8880     9.5320 c          1 YUH       0.720200
      5 N20        -22.8070   -11.1790    11.6910 na         1 YUH      -0.191700
      6 C21        -22.2530   -12.3910    12.0550 ca         1 YUH      -0.057200
      7 C24        -26.5730   -13.2520    14.6410 cy         1 YUH       0.137000
      8 C25        -27.3420   -13.1500    16.0080 cy         1 YUH      -0.077900
      9 C26        -28.6610   -13.3510    15.1870 cy         1 YUH      -0.080700
     10 O30        -26.5250   -11.9970    13.9470 os         1 YUH      -0.404100
     11 C31        -25.2730   -11.4840    13.9970 c          1 YUH       0.691100
     12 O32        -24.9370   -10.3890    13.5730 o          1 YUH      -0.529000
     13 C01        -22.4040   -12.6410    15.9050 c3         1 YUH      -0.094100
     14 C02        -22.9680   -12.2800    14.5120 c3         1 YUH       0.188000
     15 C03        -22.2590   -12.9770    13.3390 ca         1 YUH      -0.132300
     16 C04        -21.5940   -14.2190    13.4860 ca         1 YUH      -0.111000
     17 C05        -20.9140   -14.8010    12.3960 ca         1 YUH      -0.168000
     18 C06        -20.9090   -14.1730    11.1370 ca         1 YUH      -0.066000
     19 C07        -21.6320   -12.9750    10.9830 ca         1 YUH      -0.090800
     20 C08        -21.7860   -12.0840     9.8460 cc         1 YUH      -0.146200
     21 C09        -21.2330   -12.2550     8.5110 cc         1 YUH      -0.032000
     22 C12        -20.0860   -12.7190     5.8970 c          1 YUH       0.551200
     23 C16        -22.5660   -10.9970    10.3070 cd         1 YUH      -0.054300
     24 C23        -25.1040   -13.7770    14.6310 c5         1 YUH       0.087000
     25 C27        -29.8470   -14.0490    15.8700 c3         1 YUH       0.160800
     26 C29        -27.7640   -14.1730    14.2000 cy         1 YUH      -0.077900
     27 N14        -20.4880   -13.7160     6.7500 ns         1 YUH      -0.366100
     28 N22        -24.4290   -12.4820    14.4520 n          1 YUH      -0.444800
     29 O13        -19.6100   -12.9500     4.7970 o          1 YUH      -0.616000
     30 O18        -23.3040    -9.9170     8.3130 o          1 YUH      -0.695000
     31 O19        -23.8050    -9.0210    10.1850 o          1 YUH      -0.695000
     32 H101       -20.8960   -10.1290     8.0760 ha         1 YUH       0.203000
     33 H111       -19.9480   -10.5600     5.7970 ha         1 YUH       0.194000
     34 H151       -21.3450   -14.4510     8.5030 h4         1 YUH       0.192000
     35 H201       -23.4120   -10.5910    12.2610 hn         1 YUH       0.390000
     36 H252       -27.2480   -12.1970    16.5380 hc         1 YUH       0.063950
     37 H261       -29.0340   -12.4160    14.7510 hc         1 YUH       0.069700
     38 H012       -22.8660   -12.0090    16.6740 hc         1 YUH       0.037033
     39 H013       -22.6040   -13.6860    16.1670 hc         1 YUH       0.037033
     40 H011       -21.3210   -12.4740    15.9360 hc         1 YUH       0.037033
     41 H021       -22.7650   -11.2050    14.4040 h1         1 YUH       0.084700
     42 H041       -21.5750   -14.7340    14.4420 ha         1 YUH       0.089000
     43 H051       -20.3760   -15.7360    12.5340 ha         1 YUH       0.092000
     44 H061       -20.3310   -14.6110    10.3310 ha         1 YUH       0.103000
     45 H232       -24.8910   -14.4500    13.7900 h1         1 YUH       0.060700
     46 H231       -24.8110   -14.2760    15.5630 h1         1 YUH       0.060700
     47 H271       -29.4810   -14.9690    16.3460 h1         1 YUH       0.024200
     48 H272       -30.2260   -13.3850    16.6590 h1         1 YUH       0.024200
     49 H292       -28.0420   -14.1180    13.1420 hc         1 YUH       0.063950
     50 H291       -27.6400   -15.2290    14.4690 hc         1 YUH       0.063950
     51 H141       -20.3650   -14.6520     6.3830 hn         1 YUH       0.306500
     52 H281       -31.7290   -14.7980    15.5450 hn         1 YUH       0.390500
     53 H282       -31.3720   -13.5390    14.5970 hn         1 YUH       0.390500
     54 N28        -30.9670   -14.4020    14.9810 n8         1 YUH      -0.994200
     55 H251       -27.1160   -13.9590    16.7130 hc         1 YUH       0.063950
@<TRIPOS>BOND
     1     1     2 2   
     2     1    21 1   
     3     1    32 1   
     4     2    22 1   
     5     2    33 1   
     6     3    21 2   
     7     3    27 1   
     8     3    34 1   
     9     4    23 1   
    10     4    30 1   
    11     4    31 1   
    12     5     6 1   
    13     5    23 1   
    14     5    35 1   
    15     6    15 ar  
    16     6    19 ar  
    17     7     8 1   
    18     7    10 1   
    19     7    24 1   
    20     7    26 1   
    21     8     9 1   
    22     8    36 1   
    23     8    55 1   
    24     9    25 1   
    25     9    26 1   
    26     9    37 1   
    27    10    11 1   
    28    11    12 2   
    29    11    28 1   
    30    13    14 1   
    31    13    38 1   
    32    13    39 1   
    33    13    40 1   
    34    14    15 1   
    35    14    28 1   
    36    14    41 1   
    37    15    16 ar  
    38    16    17 ar  
    39    16    42 1   
    40    17    18 ar  
    41    17    43 1   
    42    18    19 ar  
    43    18    44 1   
    44    19    20 1   
    45    20    21 1   
    46    20    23 2   
    47    22    27 1   
    48    22    29 2   
    49    24    28 1   
    50    24    45 1   
    51    24    46 1   
    52    25    47 1   
    53    25    48 1   
    54    25    54 1   
    55    26    49 1   
    56    26    50 1   
    57    27    51 1   
    58    52    54 1   
    59    53    54 1   
@<TRIPOS>SUBSTRUCTURE
     1 YUH         1 TEMP              0 ****  ****    0 ROOT
