@<TRIPOS>MOLECULE
YUI
   59    63     1     0     0
SMALL
bcc


@<TRIPOS>ATOM
      1 O2          -6.5190    -3.6340     1.5890 o          1 YUI      -0.602500
      2 C25         -5.8160    -2.8180     1.0190 c          1 YUI       0.729700
      3 C1          -6.2980    -1.6580     0.3020 cc         1 YUI      -0.265400
      4 C           -7.7680    -1.4030     0.2350 c3         1 YUI      -0.019900
      5 N3          -4.4410    -2.9520     1.0160 ns         1 YUI      -0.603500
      6 C24         -3.5050    -2.1350     0.4300 c          1 YUI       0.825500
      7 O1          -2.3170    -2.3740     0.5080 o          1 YUI      -0.634500
      8 N           -4.0310    -1.0530    -0.2360 n          1 YUI      -0.374000
      9 C2          -5.3860    -0.8550    -0.2760 cd         1 YUI       0.040600
     10 C3          -3.1540    -0.0880    -0.9200 c6         1 YUI       0.127700
     11 C23         -2.3670    -0.6930    -2.0770 c6         1 YUI      -0.092900
     12 C22         -1.5810     0.4080    -2.7780 c6         1 YUI       0.177800
     13 N1          -0.7030     1.0720    -1.8360 n3         1 YUI      -0.741600
     14 C5          -1.4500     1.7080    -0.7680 c6         1 YUI       0.177800
     15 C4          -2.2380     0.6790     0.0270 c6         1 YUI      -0.092900
     16 C6           0.2550     1.9620    -2.4460 c3         1 YUI       0.120500
     17 C7           1.4330     2.2190    -1.5370 ca         1 YUI       0.454600
     18 N2           2.0400     3.3710    -1.6350 nb         1 YUI      -0.695000
     19 C21          3.1180     3.5990    -0.8440 ca         1 YUI       0.423600
     20 C20          3.7780     4.8440    -0.9500 ca         1 YUI      -0.178300
     21 C19          4.8610     5.1300    -0.1620 ca         1 YUI      -0.111000
     22 C18          5.3350     4.1870     0.7700 ca         1 YUI      -0.140000
     23 C17          4.7160     2.9710     0.8990 ca         1 YUI      -0.086000
     24 C16          3.6000     2.6560     0.0970 ca         1 YUI      -0.163300
     25 C9           2.8990     1.4230     0.1750 ca         1 YUI       0.179100
     26 C8           1.8330     1.1980    -0.6480 ca         1 YUI      -0.325300
     27 O            3.3550     0.5340     1.0810 os         1 YUI      -0.245200
     28 C10          2.6220    -0.6070     1.3100 ca         1 YUI       0.098100
     29 C15          3.1220    -1.8090     0.8390 ca         1 YUI      -0.124000
     30 C14          2.3920    -2.9620     1.0890 ca         1 YUI       0.034400
     31 CL           3.0030    -4.4780     0.5160 cl         1 YUI      -0.105400
     32 C13          1.1870    -2.9280     1.7710 ca         1 YUI      -0.110000
     33 C12          0.7130    -1.7060     2.2290 ca         1 YUI      -0.098000
     34 C11          1.4270    -0.5390     2.0100 ca         1 YUI      -0.143000
     35 H2          -8.1940    -1.2610     1.2290 hc         1 YUI       0.047033
     36 H1          -7.9800    -0.5080    -0.3490 hc         1 YUI       0.047033
     37 H3          -8.2970    -2.2370    -0.2270 hc         1 YUI       0.047033
     38 H           -4.0610    -3.7540     1.5040 hn         1 YUI       0.341500
     39 H4          -5.6980     0.0270    -0.8190 h4         1 YUI       0.153000
     40 H5          -3.8440     0.6400    -1.3550 h1         1 YUI       0.046700
     41 H24         -1.6730    -1.4510    -1.7160 hc         1 YUI       0.068200
     42 H23         -3.0480    -1.1670    -2.7870 hc         1 YUI       0.068200
     43 H21         -0.9780    -0.0330    -3.5740 h1         1 YUI       0.036950
     44 H22         -2.2800     1.1130    -3.2590 h1         1 YUI       0.036950
     45 H9          -0.7590     2.2190    -0.0950 h1         1 YUI       0.036950
     46 H8          -2.1300     2.4820    -1.1670 h1         1 YUI       0.036950
     47 H7          -2.8300     1.1840     0.7940 hc         1 YUI       0.068200
     48 H6          -1.5430     0.0020     0.5230 hc         1 YUI       0.068200
     49 H11          0.6330     1.4910    -3.3600 h1         1 YUI       0.056200
     50 H10         -0.1740     2.9290    -2.7510 h1         1 YUI       0.056200
     51 H20          3.4030     5.5630    -1.6670 ha         1 YUI       0.148000
     52 H19          5.3560     6.0880    -0.2520 ha         1 YUI       0.134000
     53 H18          6.1920     4.4250     1.3850 ha         1 YUI       0.134000
     54 H17          5.0890     2.2540     1.6180 ha         1 YUI       0.146000
     55 H12          1.2560     0.2840    -0.6250 ha         1 YUI       0.176000
     56 H16          4.0550    -1.8420     0.2930 ha         1 YUI       0.162000
     57 H15          0.6260    -3.8360     1.9430 ha         1 YUI       0.155000
     58 H14         -0.2290    -1.6680     2.7570 ha         1 YUI       0.144000
     59 H13          1.0530     0.4110     2.3670 ha         1 YUI       0.148000
@<TRIPOS>BOND
     1     1     2 2   
     2     2     3 1   
     3     2     5 1   
     4     3     4 1   
     5     3     9 2   
     6     4    35 1   
     7     4    36 1   
     8     4    37 1   
     9     5     6 1   
    10     5    38 1   
    11     6     7 2   
    12     6     8 1   
    13     8     9 1   
    14     8    10 1   
    15     9    39 1   
    16    10    11 1   
    17    10    15 1   
    18    10    40 1   
    19    11    12 1   
    20    11    41 1   
    21    11    42 1   
    22    12    13 1   
    23    12    43 1   
    24    12    44 1   
    25    13    14 1   
    26    13    16 1   
    27    14    15 1   
    28    14    45 1   
    29    14    46 1   
    30    15    47 1   
    31    15    48 1   
    32    16    17 1   
    33    16    49 1   
    34    16    50 1   
    35    17    18 ar  
    36    17    26 ar  
    37    18    19 ar  
    38    19    20 ar  
    39    19    24 ar  
    40    20    21 ar  
    41    20    51 1   
    42    21    22 ar  
    43    21    52 1   
    44    22    23 ar  
    45    22    53 1   
    46    23    24 ar  
    47    23    54 1   
    48    24    25 ar  
    49    25    26 ar  
    50    25    27 1   
    51    26    55 1   
    52    27    28 1   
    53    28    29 ar  
    54    28    34 ar  
    55    29    30 ar  
    56    29    56 1   
    57    30    31 1   
    58    30    32 ar  
    59    32    33 ar  
    60    32    57 1   
    61    33    34 ar  
    62    33    58 1   
    63    34    59 1   
@<TRIPOS>SUBSTRUCTURE
     1 YUI         1 TEMP              0 ****  ****    0 ROOT
