@<TRIPOS>MOLECULE
YUI
   59    63     1     0     0
SMALL
No Charge or Current Charge


@<TRIPOS>ATOM
      1 O2          -6.8410    -3.8140     1.1510 o          1 YUI      -0.527000
      2 C25         -6.0990    -2.9680     0.6780 c          1 YUI       0.587200
      3 C1          -6.5150    -1.6060     0.2790 cc         1 YUI      -0.265400
      4 C           -7.9740    -1.2700     0.4860 c3         1 YUI      -0.019900
      5 N3          -4.7830    -3.2270     0.4750 ns         1 YUI      -0.469500
      6 C24         -3.8280    -2.4090    -0.0360 c          1 YUI       0.616000
      7 O1          -2.6830    -2.8120    -0.1490 o          1 YUI      -0.559000
      8 N           -4.2530    -1.1100    -0.4090 n          1 YUI      -0.307000
      9 C2          -5.5880    -0.7310    -0.2460 cd         1 YUI      -0.009400
     10 C3          -3.2980    -0.1140    -0.9820 c6         1 YUI       0.127700
     11 C23         -2.7240    -0.5180    -2.3610 c6         1 YUI      -0.092900
     12 C22         -1.8140     0.6020    -2.9160 c6         1 YUI       0.177800
     13 N1          -0.7410     0.9570    -1.9470 n3         1 YUI      -0.741600
     14 C5          -1.3030     1.4150    -0.6430 c6         1 YUI       0.177800
     15 C4          -2.1860     0.3240    -0.0000 c6         1 YUI      -0.092900
     16 C6           0.2590     1.9120    -2.5190 c3         1 YUI       0.120500
     17 C7           1.5120     2.1550    -1.6560 ca         1 YUI       0.389300
     18 N2           2.0000     3.4180    -1.6040 nb         1 YUI      -0.695000
     19 C21          3.0850     3.6740    -0.8360 ca         1 YUI       0.293000
     20 C20          3.5980     4.9840    -0.7840 ca         1 YUI      -0.095000
     21 C19          4.7180     5.2930     0.0070 ca         1 YUI      -0.093000
     22 C18          5.3410     4.2870     0.7620 ca         1 YUI      -0.122000
     23 C17          4.8450     2.9740     0.7250 ca         1 YUI      -0.068000
     24 C16          3.7210     2.6640    -0.0720 ca         1 YUI      -0.098000
     25 C9           3.2030     1.3560    -0.1240 ca         1 YUI       0.179100
     26 C8           2.0990     1.1010    -0.9450 ca         1 YUI      -0.242000
     27 O            3.7740     0.3390     0.6120 os         1 YUI      -0.245200
     28 C10          3.0260    -0.6440     1.2210 ca         1 YUI       0.098100
     29 C15          3.5230    -1.9570     1.2500 ca         1 YUI      -0.106000
     30 C14          2.7750    -2.9760     1.8630 ca         1 YUI       0.126000
     31 Cl           3.3950    -4.6220     1.8890 cl         1 YUI      -0.197000
     32 C13          1.5340    -2.6850     2.4540 ca         1 YUI      -0.092000
     33 C12          1.0400    -1.3690     2.4390 ca         1 YUI      -0.080000
     34 C11          1.7870    -0.3470     1.8280 ca         1 YUI      -0.125000
     35 H2          -8.2520    -1.3550     1.5440 hc         1 YUI       0.047033
     36 H1          -8.1960    -0.2440     0.1660 hc         1 YUI       0.047033
     37 H3          -8.6200    -1.9440    -0.0890 hc         1 YUI       0.047033
     38 H           -4.4720    -4.1480     0.7370 hn         1 YUI       0.341500
     39 H4          -5.8220     0.2830    -0.5600 h4         1 YUI       0.203000
     40 H5          -3.8750     0.8020    -1.1770 h1         1 YUI       0.046700
     41 H24         -2.1390    -1.4430    -2.2820 hc         1 YUI       0.068200
     42 H23         -3.5400    -0.7170    -3.0670 hc         1 YUI       0.068200
     43 H21         -1.3740     0.2580    -3.8640 h1         1 YUI       0.036950
     44 H22         -2.4270     1.4870    -3.1460 h1         1 YUI       0.036950
     45 H9          -0.4980     1.6660     0.0630 h1         1 YUI       0.036950
     46 H8          -1.9000     2.3280    -0.7860 h1         1 YUI       0.036950
     47 H7          -2.6310     0.7050     0.9280 hc         1 YUI       0.068200
     48 H6          -1.5530    -0.5280     0.2770 hc         1 YUI       0.068200
     49 H11          0.6100     1.5360    -3.4900 h1         1 YUI       0.056200
     50 H10         -0.2240     2.8790    -2.7150 h1         1 YUI       0.056200
     51 H20          3.1200     5.7680    -1.3640 ha         1 YUI       0.130000
     52 H19          5.1010     6.3110     0.0350 ha         1 YUI       0.116000
     53 H18          6.2070     4.5240     1.3760 ha         1 YUI       0.116000
     54 H17          5.3370     2.2050     1.3160 ha         1 YUI       0.128000
     55 H12          1.6800     0.1030    -1.0230 ha         1 YUI       0.158000
     56 H16          4.4810    -2.1850     0.7920 ha         1 YUI       0.144000
     57 H15          0.9590    -3.4780     2.9250 ha         1 YUI       0.137000
     58 H14          0.0810    -1.1410     2.9010 ha         1 YUI       0.126000
     59 H13          1.4040     0.6710     1.8270 ha         1 YUI       0.130000
@<TRIPOS>BOND
     1     1     2 2   
     2     2     3 1   
     3     2     5 1   
     4     3     4 1   
     5     3     9 2   
     6     4    35 1   
     7     4    36 1   
     8     4    37 1   
     9     5     6 1   
    10     5    38 1   
    11     6     7 2   
    12     6     8 1   
    13     8     9 1   
    14     8    10 1   
    15     9    39 1   
    16    10    11 1   
    17    10    15 1   
    18    10    40 1   
    19    11    12 1   
    20    11    41 1   
    21    11    42 1   
    22    12    13 1   
    23    12    43 1   
    24    12    44 1   
    25    13    14 1   
    26    13    16 1   
    27    14    15 1   
    28    14    45 1   
    29    14    46 1   
    30    15    47 1   
    31    15    48 1   
    32    16    17 1   
    33    16    49 1   
    34    16    50 1   
    35    17    18 ar  
    36    17    26 ar  
    37    18    19 ar  
    38    19    20 ar  
    39    19    24 ar  
    40    20    21 ar  
    41    20    51 1   
    42    21    22 ar  
    43    21    52 1   
    44    22    23 ar  
    45    22    53 1   
    46    23    24 ar  
    47    23    54 1   
    48    24    25 ar  
    49    25    26 ar  
    50    25    27 1   
    51    26    55 1   
    52    27    28 1   
    53    28    29 ar  
    54    28    34 ar  
    55    29    30 ar  
    56    29    56 1   
    57    30    31 1   
    58    30    32 ar  
    59    32    33 ar  
    60    32    57 1   
    61    33    34 ar  
    62    33    58 1   
    63    34    59 1   
@<TRIPOS>SUBSTRUCTURE
     1 YUI         1 TEMP              0 ****  ****    0 ROOT
