@<TRIPOS>MOLECULE
YUJ
   81    85     1     0     0
SMALL
abcg2


@<TRIPOS>ATOM
      1 C10         19.3440    -1.9020    14.3920 c3         1 YUJ       0.214800
      2 C13         19.8890    -0.1550    16.2040 c3         1 YUJ       0.096700
      3 C15         21.7850     0.4280    17.6470 c          1 YUJ       0.639100
      4 C21         22.9560     1.9640    20.3050 c5         1 YUJ      -0.147700
      5 C22         23.5460     3.3960    20.3170 c5         1 YUJ       0.371300
      6 C24         21.3100     3.6370    19.8870 c5         1 YUJ       0.152600
      7 C26         18.5410     0.5640    16.3260 c3         1 YUJ      -0.040100
      8 C28         18.2060     2.4280    17.9830 ca         1 YUJ      -0.102500
      9 C01         15.6020    -4.8440    13.7320 ca         1 YUJ      -0.108000
     10 C02         16.4320    -4.1140    14.5720 ca         1 YUJ      -0.020000
     11 C03         17.5190    -4.7410    15.1750 ca         1 YUJ      -0.301500
     12 C04         17.7970    -6.0890    14.9640 ca         1 YUJ      -0.006000
     13 C09         20.5700    -4.0570    14.4010 c3         1 YUJ       0.204800
     14 C11         20.1800    -0.6830    14.7890 c3         1 YUJ       0.154300
     15 C18         23.5000     1.3470    19.0070 c5         1 YUJ       0.160300
     16 C19         24.6910     2.2420    18.7160 c5         1 YUJ       0.152600
     17 C23         21.4520     2.2140    20.4080 c5         1 YUJ      -0.097400
     18 C27         18.2810     1.0620    17.7220 ca         1 YUJ      -0.084300
     19 C29         17.9540     2.9000    19.2660 ca         1 YUJ      -0.116000
     20 C30         17.7820     2.0090    20.3140 ca         1 YUJ      -0.115000
     21 C31         17.8620     0.6430    20.0690 ca         1 YUJ      -0.116000
     22 C32         18.1090     0.1760    18.7850 ca         1 YUJ      -0.102500
     23 C33         22.0210    -3.6050    14.2730 c3         1 YUJ      -0.062700
     24 C34         22.7730    -4.6310    13.4320 c3         1 YUJ      -0.091600
     25 C35         22.6750    -3.4290    15.6370 c3         1 YUJ      -0.091600
     26 C36         16.1650    -8.2810    12.4480 c5         1 YUJ      -0.078400
     27 C37         17.0390    -8.2460    13.7100 c5         1 YUJ      -0.034100
     28 C38         16.9640    -6.8010    14.1190 ca         1 YUJ      -0.100300
     29 C39         15.8780    -6.1820    13.5110 ca         1 YUJ      -0.072300
     30 C40         15.1250    -7.1740    12.6550 c5         1 YUJ       0.208600
     31 N08         19.7210    -3.1070    15.1290 n3         1 YUJ      -0.735500
     32 N14         20.9480     0.7320    16.6400 ns         1 YUJ      -0.503900
     33 O06         19.3500    -4.6770    17.0440 o          1 YUJ      -0.535500
     34 O07         17.8630    -2.6800    16.7540 o          1 YUJ      -0.535500
     35 O12         19.9410     0.2820    13.7890 oh         1 YUJ      -0.667000
     36 O16         21.8310    -0.6360    18.2300 o          1 YUJ      -0.538000
     37 O17         22.5860     1.4680    17.9210 os         1 YUJ      -0.454100
     38 O20         24.2990     3.5310    19.1340 os         1 YUJ      -0.460000
     39 O25         22.4930     4.2960    20.3290 os         1 YUJ      -0.440000
     40 O41         14.6690    -6.6700    11.4270 oh         1 YUJ      -0.644000
     41 S05         18.6220    -3.7740    16.1690 sy         1 YUJ       1.162600
     42 H102        18.2810    -1.6840    14.4960 h1         1 YUJ       0.063200
     43 H101        19.5090    -2.0930    13.3290 h1         1 YUJ       0.063200
     44 H131        19.9020    -1.0110    16.8780 h1         1 YUJ       0.101700
     45 H221        24.1810     3.6070    21.1860 h2         1 YUJ       0.078700
     46 H241        20.4510     4.1650    20.3020 h1         1 YUJ       0.054700
     47 H242        21.2240     3.6620    18.7960 h1         1 YUJ       0.054700
     48 H261        18.5150     1.4070    15.6330 hc         1 YUJ       0.062700
     49 H262        17.7440    -0.1160    16.0200 hc         1 YUJ       0.062700
     50 H281        18.3370     3.1330    17.1710 ha         1 YUJ       0.122000
     51 H011        14.7540    -4.3600    13.2630 ha         1 YUJ       0.119000
     52 H021        16.2230    -3.0680    14.7560 ha         1 YUJ       0.132000
     53 H041        18.6420    -6.5690    15.4410 ha         1 YUJ       0.139000
     54 H091        20.1430    -4.2340    13.4070 h1         1 YUJ       0.049700
     55 H092        20.5690    -5.0150    14.9220 h1         1 YUJ       0.049700
     56 H111        21.2350    -0.9840    14.7860 h1         1 YUJ       0.054700
     57 H181        23.7960     0.3070    19.1350 h1         1 YUJ       0.087700
     58 H191        24.9660     2.2710    17.6610 h1         1 YUJ       0.060200
     59 H192        25.5570     1.8820    19.2850 h1         1 YUJ       0.060200
     60 H232        21.1490     2.1700    21.4550 hc         1 YUJ       0.065700
     61 H231        20.8270     1.5010    19.8730 hc         1 YUJ       0.065700
     62 H291        17.8950     3.9660    19.4440 ha         1 YUJ       0.112500
     63 H301        17.5870     2.3730    21.3150 ha         1 YUJ       0.110000
     64 H311        17.7280    -0.0620    20.8800 ha         1 YUJ       0.112500
     65 H321        18.1540    -0.8910    18.6070 ha         1 YUJ       0.122000
     66 H331        22.0510    -2.6530    13.7340 hc         1 YUJ       0.048700
     67 H342        23.8130    -4.3350    13.2960 hc         1 YUJ       0.039867
     68 H343        22.7670    -5.6120    13.9120 hc         1 YUJ       0.039867
     69 H341        22.3280    -4.7430    12.4410 hc         1 YUJ       0.039867
     70 H352        22.1660    -2.6830    16.2480 hc         1 YUJ       0.039867
     71 H351        22.6710    -4.3700    16.1910 hc         1 YUJ       0.039867
     72 H353        23.7140    -3.1130    15.5290 hc         1 YUJ       0.039867
     73 H362        15.7130    -9.2550    12.2660 hc         1 YUJ       0.063200
     74 H361        16.7730    -8.0240    11.5770 hc         1 YUJ       0.063200
     75 H372        16.6190    -8.8820    14.4940 hc         1 YUJ       0.059700
     76 H371        18.0590    -8.5880    13.5340 hc         1 YUJ       0.059700
     77 H401        14.2880    -7.5680    13.2490 h1         1 YUJ       0.046700
     78 H141        20.9540     1.6790    16.2900 hn         1 YUJ       0.322500
     79 H121        20.5940     0.9840    13.8660 ho         1 YUJ       0.451000
     80 H411        13.8570    -6.1760    11.5780 ho         1 YUJ       0.447000
     81 H211        23.3260     1.3800    21.1480 hc         1 YUJ       0.077700
@<TRIPOS>BOND
     1     1    14 1   
     2     1    31 1   
     3     1    42 1   
     4     1    43 1   
     5     2     7 1   
     6     2    14 1   
     7     2    32 1   
     8     2    44 1   
     9     3    32 1   
    10     3    36 2   
    11     3    37 1   
    12     4     5 1   
    13     4    15 1   
    14     4    17 1   
    15     4    81 1   
    16     5    38 1   
    17     5    39 1   
    18     5    45 1   
    19     6    17 1   
    20     6    39 1   
    21     6    46 1   
    22     6    47 1   
    23     7    18 1   
    24     7    48 1   
    25     7    49 1   
    26     8    18 ar  
    27     8    19 ar  
    28     8    50 1   
    29     9    10 ar  
    30     9    29 ar  
    31     9    51 1   
    32    10    11 ar  
    33    10    52 1   
    34    11    12 ar  
    35    11    41 1   
    36    12    28 ar  
    37    12    53 1   
    38    13    23 1   
    39    13    31 1   
    40    13    54 1   
    41    13    55 1   
    42    14    35 1   
    43    14    56 1   
    44    15    16 1   
    45    15    37 1   
    46    15    57 1   
    47    16    38 1   
    48    16    58 1   
    49    16    59 1   
    50    17    60 1   
    51    17    61 1   
    52    18    22 ar  
    53    19    20 ar  
    54    19    62 1   
    55    20    21 ar  
    56    20    63 1   
    57    21    22 ar  
    58    21    64 1   
    59    22    65 1   
    60    23    24 1   
    61    23    25 1   
    62    23    66 1   
    63    24    67 1   
    64    24    68 1   
    65    24    69 1   
    66    25    70 1   
    67    25    71 1   
    68    25    72 1   
    69    26    27 1   
    70    26    30 1   
    71    26    73 1   
    72    26    74 1   
    73    27    28 1   
    74    27    75 1   
    75    27    76 1   
    76    28    29 ar  
    77    29    30 1   
    78    30    40 1   
    79    30    77 1   
    80    31    41 1   
    81    32    78 1   
    82    33    41 2   
    83    34    41 2   
    84    35    79 1   
    85    40    80 1   
@<TRIPOS>SUBSTRUCTURE
     1 YUJ         1 TEMP              0 ****  ****    0 ROOT
