@<TRIPOS>MOLECULE
YUJ
   81    85     1     0     0
SMALL
No Charge or Current Charge


@<TRIPOS>ATOM
      1 C10         19.2700    -2.3590    14.8350 c3         1 YUJ       0.214800
      2 C13         19.8710    -0.3630    16.4120 c3         1 YUJ       0.096700
      3 C15         21.9310     0.5130    17.5580 c          1 YUJ       0.639100
      4 C21         23.1680     2.2970    20.0520 c5         1 YUJ      -0.147700
      5 C22         23.5840     3.8070    20.0370 c5         1 YUJ       0.371300
      6 C24         21.2950     3.7840    19.7000 c5         1 YUJ       0.152600
      7 C26         18.4580     0.2540    16.6090 c3         1 YUJ      -0.040100
      8 C28         18.0640     2.2870    18.0970 ca         1 YUJ      -0.102500
      9 C01         15.5390    -4.6810    13.5400 ca         1 YUJ      -0.108000
     10 C02         16.2860    -4.1330    14.6000 ca         1 YUJ      -0.020000
     11 C03         17.3290    -4.8820    15.1980 ca         1 YUJ      -0.301500
     12 C04         17.6080    -6.1880    14.7370 ca         1 YUJ      -0.006000
     13 C09         20.5330    -4.4950    15.1190 c3         1 YUJ       0.204800
     14 C11         20.1060    -1.0570    15.0330 c3         1 YUJ       0.154300
     15 C18         23.6500     1.7620    18.6410 c5         1 YUJ       0.160300
     16 C19         24.6270     2.8830    18.1950 c5         1 YUJ       0.152600
     17 C23         21.6050     2.3640    20.2250 c5         1 YUJ      -0.097400
     18 C27         18.2780     0.8990    17.9820 ca         1 YUJ      -0.084300
     19 C29         17.9000     2.8770    19.3620 ca         1 YUJ      -0.116000
     20 C30         17.9560     2.0850    20.5210 ca         1 YUJ      -0.115000
     21 C31         18.1680     0.7010    20.4130 ca         1 YUJ      -0.116000
     22 C32         18.3260     0.1090    19.1480 ca         1 YUJ      -0.102500
     23 C33         21.9530    -4.0040    14.7290 c3         1 YUJ      -0.062700
     24 C34         22.7280    -5.1050    13.9680 c3         1 YUJ      -0.091600
     25 C35         22.7590    -3.5190    15.9580 c3         1 YUJ      -0.091600
     26 C36         16.2380    -7.8590    11.6970 c5         1 YUJ      -0.078400
     27 C37         16.9970    -8.0770    13.0600 c5         1 YUJ      -0.034100
     28 C38         16.8530    -6.7100    13.6750 ca         1 YUJ      -0.100300
     29 C39         15.8450    -5.9740    13.0810 ca         1 YUJ      -0.072300
     30 C40         15.1580    -6.7450    11.9780 c5         1 YUJ       0.208600
     31 N08         19.6320    -3.4880    15.7450 n3         1 YUJ      -0.735500
     32 N14         20.8980     0.6560    16.6780 ns         1 YUJ      -0.503900
     33 O06         18.8280    -5.2650    17.3850 o          1 YUJ      -0.535500
     34 O07         17.5620    -3.0690    17.1630 o          1 YUJ      -0.535500
     35 O12         19.8470    -0.1370    13.9520 oh         1 YUJ      -0.667000
     36 O16         22.1860    -0.5060    18.1810 o          1 YUJ      -0.538000
     37 O17         22.5780     1.7130    17.6540 os         1 YUJ      -0.454100
     38 O20         24.0260     4.0880    18.6990 os         1 YUJ      -0.460000
     39 O25         22.3730     4.5500    20.2650 os         1 YUJ      -0.440000
     40 O41         14.9060    -5.9480    10.8220 oh         1 YUJ      -0.644000
     41 S05         18.2930    -4.1830    16.5500 sy         1 YUJ       1.162600
     42 H102        18.2150    -2.0800    14.9390 h1         1 YUJ       0.063200
     43 H101        19.3780    -2.6790    13.7890 h1         1 YUJ       0.063200
     44 H131        19.9800    -1.1500    17.1720 h1         1 YUJ       0.101700
     45 H221        24.3630     4.0470    20.7740 h2         1 YUJ       0.078700
     46 H241        20.3300     4.1710    20.0520 h1         1 YUJ       0.054700
     47 H242        21.3300     3.8450    18.6040 h1         1 YUJ       0.054700
     48 H261        18.2750     0.9940    15.8200 hc         1 YUJ       0.062700
     49 H262        17.6930    -0.5180    16.4750 hc         1 YUJ       0.062700
     50 H281        18.0240     2.9120    17.2070 ha         1 YUJ       0.122000
     51 H011        14.7350    -4.1060    13.0880 ha         1 YUJ       0.119000
     52 H021        16.0480    -3.1320    14.9550 ha         1 YUJ       0.132000
     53 H041        18.3940    -6.7890    15.1900 ha         1 YUJ       0.139000
     54 H091        20.0520    -4.9020    14.2180 h1         1 YUJ       0.049700
     55 H092        20.6840    -5.3450    15.7980 h1         1 YUJ       0.049700
     56 H111        21.1640    -1.3400    15.0010 h1         1 YUJ       0.054700
     57 H181        24.1760     0.7990    18.6960 h1         1 YUJ       0.087700
     58 H191        24.7420     2.9430    17.1040 h1         1 YUJ       0.060200
     59 H192        25.6190     2.7560    18.6500 h1         1 YUJ       0.060200
     60 H232        21.3340     2.2950    21.2840 hc         1 YUJ       0.065700
     61 H231        21.0360     1.5800    19.7200 hc         1 YUJ       0.065700
     62 H291        17.7330     3.9490    19.4440 ha         1 YUJ       0.112500
     63 H301        17.8320     2.5420    21.5000 ha         1 YUJ       0.110000
     64 H311        18.2090     0.0850    21.3090 ha         1 YUJ       0.112500
     65 H321        18.4850    -0.9640    19.0740 ha         1 YUJ       0.122000
     66 H331        21.8510    -3.1660    14.0310 hc         1 YUJ       0.048700
     67 H342        23.7140    -4.7400    13.6560 hc         1 YUJ       0.039867
     68 H343        22.8740    -5.9900    14.6000 hc         1 YUJ       0.039867
     69 H341        22.1820    -5.4120    13.0680 hc         1 YUJ       0.039867
     70 H352        22.2210    -2.7350    16.5010 hc         1 YUJ       0.039867
     71 H351        22.9410    -4.3460    16.6550 hc         1 YUJ       0.039867
     72 H353        23.7290    -3.1110    15.6500 hc         1 YUJ       0.039867
     73 H362        15.7890    -8.7840    11.3170 hc         1 YUJ       0.063200
     74 H361        16.9450    -7.5170    10.9330 hc         1 YUJ       0.063200
     75 H372        16.5140    -8.8450    13.6750 hc         1 YUJ       0.059700
     76 H371        18.0410    -8.3760    12.9100 hc         1 YUJ       0.059700
     77 H401        14.2270    -7.1890    12.3590 h1         1 YUJ       0.046700
     78 H141        20.7860     1.5820    16.2870 hn         1 YUJ       0.322500
     79 H121        20.5390     0.5580    13.9950 ho         1 YUJ       0.451000
     80 H411        14.2830    -5.2430    11.1010 ho         1 YUJ       0.447000
     81 H211        23.6520     1.7540    20.8710 hc         1 YUJ       0.077700
@<TRIPOS>BOND
     1     1    14 1   
     2     1    31 1   
     3     1    42 1   
     4     1    43 1   
     5     2     7 1   
     6     2    14 1   
     7     2    32 1   
     8     2    44 1   
     9     3    32 1   
    10     3    36 2   
    11     3    37 1   
    12     4     5 1   
    13     4    15 1   
    14     4    17 1   
    15     4    81 1   
    16     5    38 1   
    17     5    39 1   
    18     5    45 1   
    19     6    17 1   
    20     6    39 1   
    21     6    46 1   
    22     6    47 1   
    23     7    18 1   
    24     7    48 1   
    25     7    49 1   
    26     8    18 ar  
    27     8    19 ar  
    28     8    50 1   
    29     9    10 ar  
    30     9    29 ar  
    31     9    51 1   
    32    10    11 ar  
    33    10    52 1   
    34    11    12 ar  
    35    11    41 1   
    36    12    28 ar  
    37    12    53 1   
    38    13    23 1   
    39    13    31 1   
    40    13    54 1   
    41    13    55 1   
    42    14    35 1   
    43    14    56 1   
    44    15    16 1   
    45    15    37 1   
    46    15    57 1   
    47    16    38 1   
    48    16    58 1   
    49    16    59 1   
    50    17    60 1   
    51    17    61 1   
    52    18    22 ar  
    53    19    20 ar  
    54    19    62 1   
    55    20    21 ar  
    56    20    63 1   
    57    21    22 ar  
    58    21    64 1   
    59    22    65 1   
    60    23    24 1   
    61    23    25 1   
    62    23    66 1   
    63    24    67 1   
    64    24    68 1   
    65    24    69 1   
    66    25    70 1   
    67    25    71 1   
    68    25    72 1   
    69    26    27 1   
    70    26    30 1   
    71    26    73 1   
    72    26    74 1   
    73    27    28 1   
    74    27    75 1   
    75    27    76 1   
    76    28    29 ar  
    77    29    30 1   
    78    30    40 1   
    79    30    77 1   
    80    31    41 1   
    81    32    78 1   
    82    33    41 2   
    83    34    41 2   
    84    35    79 1   
    85    40    80 1   
@<TRIPOS>SUBSTRUCTURE
     1 YUJ         1 TEMP              0 ****  ****    0 ROOT
