@<TRIPOS>MOLECULE
YUK
   67    72     1     0     0
SMALL
bcc


@<TRIPOS>ATOM
      1 O30         -6.7090     2.6270    -0.6080 o          1 YUK      -0.643100
      2 C28         -5.6480     3.1660    -0.2880 c          1 YUK       0.696700
      3 N29         -5.6320     4.4100     0.2200 nt         1 YUK      -0.664000
      4 C25         -4.3340     2.4870    -0.4410 ca         1 YUK      -0.254600
      5 C24         -4.2490     1.0690    -0.5400 ca         1 YUK       0.266600
      6 N31         -5.3510     0.2850    -0.5620 nu         1 YUK      -0.771600
      7 C32         -5.3650    -1.1500    -0.3850 c6         1 YUK       0.236500
      8 C37         -6.7330    -1.6830    -0.8030 c6         1 YUK      -0.092900
      9 C36         -6.8240    -3.1940    -0.6240 c6         1 YUK      -0.091400
     10 C35         -6.5050    -3.6010     0.8060 c6         1 YUK       0.146100
     11 O38         -6.5930    -5.0090     0.8890 oh         1 YUK      -0.594800
     12 C34         -5.1300    -3.0830     1.2130 c6         1 YUK      -0.091400
     13 C33         -5.0500    -1.5690     1.0540 c6         1 YUK      -0.092900
     14 C23         -2.9630     0.4970    -0.6150 ca         1 YUK      -0.199000
     15 C22         -1.8170     1.2690    -0.6260 cp         1 YUK      -0.078500
     16 C27         -1.9110     2.6610    -0.5820 ca         1 YUK      -0.198000
     17 C26         -3.1590     3.2390    -0.4950 ca         1 YUK      -0.055000
     18 C21         -0.4990     0.5990    -0.7420 cp         1 YUK       0.491800
     19 N20         -0.3540    -0.2170    -1.7560 nb         1 YUK      -0.657000
     20 C19          0.8340    -0.8240    -1.9450 ca         1 YUK       0.404200
     21 C18          1.9160    -0.6440    -1.1330 ca         1 YUK      -0.231300
     22 C13          1.7840     0.1930    -0.0050 ca         1 YUK      -0.007000
     23 C14          0.5390     0.8350     0.2100 ca         1 YUK      -0.145300
     24 C12          2.8280     0.4150     0.9270 ca         1 YUK      -0.016200
     25 C17          2.6450     1.2300     2.0090 ca         1 YUK      -0.093000
     26 C16          1.4010     1.8480     2.2260 ca         1 YUK      -0.136000
     27 C15          0.3680     1.6500     1.3530 ca         1 YUK      -0.083000
     28 N10          4.0830    -0.2100     0.7290 na         1 YUK      -0.134000
     29 C9           4.3700    -1.5250     0.8960 cc         1 YUK       0.405400
     30 N8           5.6240    -1.7760     0.6500 nd         1 YUK      -0.669000
     31 C7           6.1940    -0.5780     0.3070 cd         1 YUK       0.360800
     32 C11          5.2440     0.4090     0.3510 cc         1 YUK      -0.234600
     33 C4           7.6080    -0.4650    -0.0480 ca         1 YUK      -0.102500
     34 C3           8.4050    -1.6060    -0.1530 ca         1 YUK      -0.113000
     35 C2           9.7460    -1.5040    -0.4940 ca         1 YUK      -0.132500
     36 C1          10.3170    -0.2620    -0.7360 ca         1 YUK      -0.128000
     37 C6           9.5320     0.8800    -0.6320 ca         1 YUK      -0.132500
     38 C5           8.1930     0.7800    -0.2900 ca         1 YUK      -0.113000
     39 H1          -6.5070     4.8860     0.3670 hn         1 YUK       0.313000
     40 H2          -4.8230     4.8090     0.6610 hn         1 YUK       0.313000
     41 H3          -6.2340     0.7710    -0.5160 hn         1 YUK       0.470800
     42 H4          -4.6220    -1.6040    -1.0520 h1         1 YUK       0.061700
     43 H5          -7.5070    -1.1940    -0.1990 hc         1 YUK       0.051450
     44 H6          -6.9310    -1.4180    -1.8440 hc         1 YUK       0.051450
     45 H7          -7.8240    -3.5380    -0.8980 hc         1 YUK       0.052700
     46 H8          -6.1190    -3.6860    -1.3040 hc         1 YUK       0.052700
     47 H9          -7.2520    -3.1310     1.4670 h1         1 YUK       0.028700
     48 H10         -6.3860    -5.2690     1.7920 ho         1 YUK       0.403000
     49 H11         -4.9160    -3.3580     2.2500 hc         1 YUK       0.052700
     50 H12         -4.3670    -3.5650     0.5910 hc         1 YUK       0.052700
     51 H13         -4.0600    -1.2130     1.3490 hc         1 YUK       0.051450
     52 H14         -5.7680    -1.0840     1.7230 hc         1 YUK       0.051450
     53 H15         -2.8580    -0.5780    -0.6730 ha         1 YUK       0.147000
     54 H16         -1.0270     3.2830    -0.6340 ha         1 YUK       0.138000
     55 H17         -3.2150     4.3200    -0.4910 ha         1 YUK       0.125000
     56 H18          0.8990    -1.4760    -2.8070 h4         1 YUK       0.027100
     57 H19          2.8470    -1.1440    -1.3590 ha         1 YUK       0.158000
     58 H20          3.4540     1.3840     2.7110 ha         1 YUK       0.151000
     59 H21          1.2630     2.4720     3.0980 ha         1 YUK       0.143000
     60 H22         -0.5900     2.1130     1.5450 ha         1 YUK       0.151000
     61 H23          3.6220    -2.2400     1.2060 h5         1 YUK       0.061100
     62 H24          5.2760     1.4660     0.1450 h4         1 YUK       0.180000
     63 H25          7.9710    -2.5790     0.0330 ha         1 YUK       0.136500
     64 H26         10.3470    -2.4010    -0.5730 ha         1 YUK       0.128500
     65 H27         11.3640    -0.1830    -1.0010 ha         1 YUK       0.129000
     66 H28          9.9660     1.8550    -0.8160 ha         1 YUK       0.128500
     67 H29          7.6030     1.6850    -0.2050 ha         1 YUK       0.136500
@<TRIPOS>BOND
     1     1     2 2   
     2     2     3 1   
     3     2     4 1   
     4     3    39 1   
     5     3    40 1   
     6     4     5 ar  
     7     4    17 ar  
     8     5     6 1   
     9     5    14 ar  
    10     6     7 1   
    11     6    41 1   
    12     7     8 1   
    13     7    13 1   
    14     7    42 1   
    15     8     9 1   
    16     8    43 1   
    17     8    44 1   
    18     9    10 1   
    19     9    45 1   
    20     9    46 1   
    21    10    11 1   
    22    10    12 1   
    23    10    47 1   
    24    11    48 1   
    25    12    13 1   
    26    12    49 1   
    27    12    50 1   
    28    13    51 1   
    29    13    52 1   
    30    14    15 ar  
    31    14    53 1   
    32    15    16 ar  
    33    15    18 1   
    34    16    17 ar  
    35    16    54 1   
    36    17    55 1   
    37    18    19 ar  
    38    18    23 ar  
    39    19    20 ar  
    40    20    21 ar  
    41    20    56 1   
    42    21    22 ar  
    43    21    57 1   
    44    22    23 ar  
    45    22    24 ar  
    46    23    27 ar  
    47    24    25 ar  
    48    24    28 1   
    49    25    26 ar  
    50    25    58 1   
    51    26    27 ar  
    52    26    59 1   
    53    27    60 1   
    54    28    29 1   
    55    28    32 1   
    56    29    30 2   
    57    29    61 1   
    58    30    31 1   
    59    31    32 2   
    60    31    33 1   
    61    32    62 1   
    62    33    34 ar  
    63    33    38 ar  
    64    34    35 ar  
    65    34    63 1   
    66    35    36 ar  
    67    35    64 1   
    68    36    37 ar  
    69    36    65 1   
    70    37    38 ar  
    71    37    66 1   
    72    38    67 1   
@<TRIPOS>SUBSTRUCTURE
     1 YUK         1 TEMP              0 ****  ****    0 ROOT
