@<TRIPOS>MOLECULE
YUK
   67    72     1     0     0
SMALL
No Charge or Current Charge


@<TRIPOS>ATOM
      1 O30         -6.8140     2.3370    -0.4330 o          1 YUK      -0.643100
      2 C28         -5.7670     2.9140    -0.1890 c          1 YUK       0.629700
      3 N29         -5.8350     4.1730     0.2880 nt         1 YUK      -0.597000
      4 C25         -4.3970     2.3060    -0.4070 ca         1 YUK      -0.254600
      5 C24         -4.2370     0.9550    -0.7950 ca         1 YUK       0.405000
      6 N31         -5.3430     0.1290    -0.9760 nu         1 YUK      -0.965200
      7 C32         -5.4410    -1.2350    -0.4420 c6         1 YUK       0.236500
      8 C37         -6.7940    -1.8500    -0.8820 c6         1 YUK      -0.092900
      9 C36         -6.9890    -3.2680    -0.2860 c6         1 YUK      -0.091400
     10 C35         -6.8790    -3.2490     1.2600 c6         1 YUK       0.169300
     11 O38         -7.0000    -4.5780     1.7690 oh         1 YUK      -0.657000
     12 C34         -5.5280    -2.6310     1.7050 c6         1 YUK      -0.091400
     13 C33         -5.3310    -1.2140     1.1070 c6         1 YUK      -0.092900
     14 C23         -2.9520     0.4260    -1.0040 ca         1 YUK      -0.181000
     15 C22         -1.7830     1.1980    -0.8120 cp         1 YUK      -0.078500
     16 C27         -1.9550     2.5470    -0.4300 ca         1 YUK      -0.180000
     17 C26         -3.2310     3.0930    -0.2290 ca         1 YUK      -0.037000
     18 C21         -0.4190     0.6140    -1.0510 cp         1 YUK       0.426500
     19 N20         -0.2490     0.0510    -2.2690 nb         1 YUK      -0.657000
     20 C19          0.9620    -0.4380    -2.5990 ca         1 YUK       0.338900
     21 C18          2.0560    -0.4170    -1.7240 ca         1 YUK      -0.148000
     22 C13          1.9010     0.1190    -0.4280 ca         1 YUK      -0.007000
     23 C14          0.6330     0.6480    -0.0830 ca         1 YUK      -0.080000
     24 C12          2.9670     0.1470     0.5080 ca         1 YUK      -0.016200
     25 C17          2.7560     0.7070     1.7810 ca         1 YUK      -0.075000
     26 C16          1.4980     1.2160     2.1330 ca         1 YUK      -0.118000
     27 C15          0.4400     1.1810     1.2120 ca         1 YUK      -0.065000
     28 N10          4.2250    -0.3790     0.2140 na         1 YUK      -0.083300
     29 C9           4.4890    -1.7170     0.0480 cc         1 YUK       0.405400
     30 N8           5.8000    -1.8880    -0.0720 nd         1 YUK      -0.669000
     31 C7           6.3650    -0.6240     0.0650 cd         1 YUK       0.295500
     32 C11          5.3950     0.3310     0.2720 cc         1 YUK      -0.202000
     33 C4           7.8260    -0.3940     0.0070 ca         1 YUK      -0.102500
     34 C3           8.7210    -1.4680    -0.2100 ca         1 YUK      -0.095000
     35 C2          10.1080    -1.2470    -0.2640 ca         1 YUK      -0.114500
     36 C1          10.6220     0.0490    -0.1020 ca         1 YUK      -0.110000
     37 C6           9.7460     1.1240     0.1140 ca         1 YUK      -0.114500
     38 C5           8.3580     0.9050     0.1690 ca         1 YUK      -0.095000
     39 H1          -6.7410     4.5910     0.4340 hn         1 YUK       0.313000
     40 H2          -4.9940     4.6810     0.5080 hn         1 YUK       0.313000
     41 H3          -6.2050     0.6850    -0.9050 hn         1 YUK       0.526000
     42 H4          -4.6340    -1.8670    -0.8450 h1         1 YUK       0.061700
     43 H5          -7.6230    -1.2030    -0.5630 hc         1 YUK       0.051450
     44 H6          -6.8400    -1.9020    -1.9790 hc         1 YUK       0.051450
     45 H7          -7.9700    -3.6620    -0.5840 hc         1 YUK       0.052700
     46 H8          -6.2370    -3.9500    -0.7050 hc         1 YUK       0.052700
     47 H9          -7.6940    -2.6250     1.6560 h1         1 YUK       0.028700
     48 H10         -7.0090    -4.5050     2.7490 ho         1 YUK       0.442000
     49 H11         -5.4830    -2.5760     2.8010 hc         1 YUK       0.052700
     50 H12         -4.6990    -3.2810     1.3900 hc         1 YUK       0.052700
     51 H13         -4.3500    -0.8250     1.4110 hc         1 YUK       0.051450
     52 H14         -6.0830    -0.5310     1.5270 hc         1 YUK       0.051450
     53 H15         -2.8460    -0.6070    -1.3210 ha         1 YUK       0.129000
     54 H16         -1.0820     3.1840    -0.3000 ha         1 YUK       0.120000
     55 H17         -3.2930     4.1400     0.0560 ha         1 YUK       0.107000
     56 H18          1.0590    -0.8610    -3.5980 h4         1 YUK       0.027100
     57 H19          3.0020    -0.8200    -2.0720 ha         1 YUK       0.140000
     58 H20          3.5660     0.7330     2.5080 ha         1 YUK       0.133000
     59 H21          1.3390     1.6320     3.1250 ha         1 YUK       0.125000
     60 H22         -0.5280     1.5640     1.5240 ha         1 YUK       0.133000
     61 H23          3.7180    -2.4780     0.0220 h5         1 YUK       0.061100
     62 H24          5.4450     1.3990     0.4360 h4         1 YUK       0.162000
     63 H25          8.3450    -2.4800    -0.3380 ha         1 YUK       0.118500
     64 H26         10.7840    -2.0820    -0.4320 ha         1 YUK       0.110500
     65 H27         11.6950     0.2200    -0.1440 ha         1 YUK       0.111000
     66 H28         10.1420     2.1300     0.2410 ha         1 YUK       0.110500
     67 H29          7.7020     1.7550     0.3370 ha         1 YUK       0.118500
@<TRIPOS>BOND
     1     1     2 2   
     2     2     3 1   
     3     2     4 1   
     4     3    39 1   
     5     3    40 1   
     6     4     5 ar  
     7     4    17 ar  
     8     5     6 1   
     9     5    14 ar  
    10     6     7 1   
    11     6    41 1   
    12     7     8 1   
    13     7    13 1   
    14     7    42 1   
    15     8     9 1   
    16     8    43 1   
    17     8    44 1   
    18     9    10 1   
    19     9    45 1   
    20     9    46 1   
    21    10    11 1   
    22    10    12 1   
    23    10    47 1   
    24    11    48 1   
    25    12    13 1   
    26    12    49 1   
    27    12    50 1   
    28    13    51 1   
    29    13    52 1   
    30    14    15 ar  
    31    14    53 1   
    32    15    16 ar  
    33    15    18 1   
    34    16    17 ar  
    35    16    54 1   
    36    17    55 1   
    37    18    19 ar  
    38    18    23 ar  
    39    19    20 ar  
    40    20    21 ar  
    41    20    56 1   
    42    21    22 ar  
    43    21    57 1   
    44    22    23 ar  
    45    22    24 ar  
    46    23    27 ar  
    47    24    25 ar  
    48    24    28 1   
    49    25    26 ar  
    50    25    58 1   
    51    26    27 ar  
    52    26    59 1   
    53    27    60 1   
    54    28    29 1   
    55    28    32 1   
    56    29    30 2   
    57    29    61 1   
    58    30    31 1   
    59    31    32 2   
    60    31    33 1   
    61    32    62 1   
    62    33    34 ar  
    63    33    38 ar  
    64    34    35 ar  
    65    34    63 1   
    66    35    36 ar  
    67    35    64 1   
    68    36    37 ar  
    69    36    65 1   
    70    37    38 ar  
    71    37    66 1   
    72    38    67 1   
@<TRIPOS>SUBSTRUCTURE
     1 YUK         1 TEMP              0 ****  ****    0 ROOT
