@<TRIPOS>MOLECULE
YUM
   93    97     1     0     0
SMALL
No Charge or Current Charge


@<TRIPOS>ATOM
      1 C13         19.8180    -1.1070    14.8700 c3         1 YUM       0.146300
      2 C15         19.5900    -0.5560    16.3120 c3         1 YUM       0.140700
      3 C17         21.5170     0.3960    17.6170 c          1 YUM       0.639100
      4 C20         23.2100     1.6720    18.7130 c5         1 YUM       0.161300
      5 C21         24.2180     2.7610    18.2580 c5         1 YUM       0.153600
      6 C24         23.0990     3.7870    19.9990 c5         1 YUM       0.368300
      7 C26         20.8240     3.7420    19.5720 c5         1 YUM       0.151600
      8 C28         18.1540    -0.0310    16.5950 c3         1 YUM      -0.036100
      9 C01         15.9480    -6.1540    12.4500 ca         1 YUM      -0.026300
     10 C02         17.0120    -6.8690    13.0390 ca         1 YUM      -0.116500
     11 C03         17.6850    -6.3560    14.1610 ca         1 YUM      -0.020000
     12 C04         17.3030    -5.1130    14.7070 ca         1 YUM      -0.301500
     13 C05         16.2370    -4.3970    14.1270 ca         1 YUM      -0.020000
     14 C06         15.5680    -4.9160    13.0040 ca         1 YUM      -0.116500
     15 C11         20.4810    -4.4920    14.7940 c3         1 YUM       0.210800
     16 C12         19.0600    -2.4430    14.5920 c3         1 YUM       0.188800
     17 C23         22.6800     2.2800    20.0760 c5         1 YUM      -0.145700
     18 C25         21.1140     2.3560    20.1890 c5         1 YUM      -0.099400
     19 C29         17.9870     0.5300    18.0060 ca         1 YUM      -0.115300
     20 C30         17.6790     1.8910    18.1980 ca         1 YUM      -0.067000
     21 C31         17.5430     2.4080    19.4970 ca         1 YUM      -0.172000
     22 C32         17.7190     1.5790    20.6150 ca         1 YUM       0.138100
     23 C33         18.0180     0.2120    20.4270 ca         1 YUM      -0.172000
     24 C34         18.1480    -0.3070    19.1270 ca         1 YUM      -0.067000
     25 C36         21.8750    -3.8770    14.4970 c3         1 YUM      -0.063700
     26 C37         22.5820    -3.3810    15.7830 c3         1 YUM      -0.092600
     27 C38         22.7700    -4.8820    13.7360 c3         1 YUM      -0.092600
     28 C39         15.2070    -6.7110    11.2320 c3         1 YUM       0.211600
     29 C40         17.8330     1.4010    23.0760 c3         1 YUM       0.143300
     30 C41         14.4880    -8.0380    11.5410 c3         1 YUM      -0.130100
     31 C42         17.6580     2.3190    24.2660 cc         1 YUM       0.274300
     32 C43         16.5040     2.9990    24.5770 cd         1 YUM      -0.244000
     33 C45         18.3490     3.3450    26.0980 cd         1 YUM       0.451700
     34 C47         19.3050     3.7350    27.1870 c3         1 YUM      -0.134400
     35 N10         19.4780    -3.5990    15.4410 n3         1 YUM      -0.747500
     36 N16         20.5780     0.4830    16.6310 ns         1 YUM      -0.495900
     37 N46         18.7090     2.5120    25.1330 nc         1 YUM      -0.635000
     38 O08         18.7590    -5.5530    16.9150 o          1 YUM      -0.533500
     39 O09         17.3390    -3.4440    16.8110 o          1 YUM      -0.533500
     40 O14         19.4560    -0.1140    13.8850 oh         1 YUM      -0.660000
     41 O18         21.7010    -0.5800    18.3270 o          1 YUM      -0.548000
     42 O19         22.1830     1.5880    17.6800 os         1 YUM      -0.450100
     43 O22         23.6030     3.9950    18.6700 os         1 YUM      -0.461000
     44 O27         21.8810     4.5420    20.1320 os         1 YUM      -0.440000
     45 O35         17.6010     2.1500    21.8650 os         1 YUM      -0.345100
     46 O48         16.1160    -6.9180    10.1460 oh         1 YUM      -0.657000
     47 S07         18.1700    -4.4510    16.1440 sy         1 YUM       1.167600
     48 S44         16.7020     3.9570    26.0330 ss         1 YUM      -0.050400
     49 H131        20.8910    -1.3060    14.7830 h1         1 YUM       0.053700
     50 H151        19.7620    -1.3990    16.9950 h1         1 YUM       0.094700
     51 H201        23.7200     0.7060    18.8350 h1         1 YUM       0.080700
     52 H211        25.1850     2.6520    18.7690 h1         1 YUM       0.057700
     53 H212        24.3880     2.7650    17.1740 h1         1 YUM       0.057700
     54 H241        23.8440     4.0670    20.7570 h2         1 YUM       0.073700
     55 H261        20.9010     3.7400    18.4760 h1         1 YUM       0.060200
     56 H262        19.8460     4.1470    19.8630 h1         1 YUM       0.060200
     57 H281        17.9030     0.7390    15.8560 hc         1 YUM       0.066200
     58 H282        17.4300    -0.8370    16.4410 hc         1 YUM       0.066200
     59 H031        18.5020    -6.9270    14.5990 ha         1 YUM       0.134000
     60 H051        15.9200    -3.4410    14.5390 ha         1 YUM       0.134000
     61 H061        14.7480    -4.3510    12.5670 ha         1 YUM       0.125000
     62 H111        20.0690    -4.8770    13.8510 h1         1 YUM       0.048200
     63 H112        20.6720    -5.3690    15.4270 h1         1 YUM       0.048200
     64 H122        17.9920    -2.2270    14.7130 h1         1 YUM       0.056200
     65 H121        19.1830    -2.7010    13.5310 h1         1 YUM       0.056200
     66 H231        23.1330     1.7800    20.9390 hc         1 YUM       0.073700
     67 H251        20.8030     2.3470    21.2400 hc         1 YUM       0.070200
     68 H252        20.5660     1.5420    19.7080 hc         1 YUM       0.070200
     69 H301        17.5500     2.5520    17.3430 ha         1 YUM       0.120500
     70 H311        17.3090     3.4600    19.6390 ha         1 YUM       0.121500
     71 H331        18.1570    -0.4580    21.2700 ha         1 YUM       0.121500
     72 H341        18.3800    -1.3610    18.9910 ha         1 YUM       0.120500
     73 H361        21.7400    -3.0230    13.8240 hc         1 YUM       0.041700
     74 H371        23.5330    -2.8930    15.5390 hc         1 YUM       0.041033
     75 H373        21.9630    -2.6590    16.3250 hc         1 YUM       0.041033
     76 H372        22.7900    -4.2190    16.4590 hc         1 YUM       0.041033
     77 H381        23.7370    -4.4280    13.4870 hc         1 YUM       0.041033
     78 H383        22.9570    -5.7770    14.3420 hc         1 YUM       0.041033
     79 H382        22.2930    -5.1950    12.8000 hc         1 YUM       0.041033
     80 H391        14.4420    -5.9820    10.9310 h1         1 YUM       0.038700
     81 H401        18.8480     0.9850    23.0820 h1         1 YUM       0.050700
     82 H402        17.1190     0.5730    23.1610 h1         1 YUM       0.050700
     83 H412        13.9100    -8.3780    10.6740 hc         1 YUM       0.047700
     84 H411        15.2040    -8.8240    11.8090 hc         1 YUM       0.047700
     85 H413        13.7940    -7.9060    12.3800 hc         1 YUM       0.047700
     86 H431        15.5660     2.9930    24.0370 h4         1 YUM       0.162000
     87 H472        20.1970     4.2150    26.7680 hc         1 YUM       0.062367
     88 H471        18.8400     4.4400    27.8860 hc         1 YUM       0.062367
     89 H473        19.6260     2.8560    27.7560 hc         1 YUM       0.062367
     90 H161        20.5490     1.3540    16.1200 hn         1 YUM       0.334500
     91 H141        19.9140    -0.3470    13.0480 ho         1 YUM       0.443000
     92 H481        15.5810    -7.2250     9.3830 ho         1 YUM       0.450000
     93 H021        17.3220    -7.8240    12.6230 ha         1 YUM       0.125000
@<TRIPOS>BOND
     1     1     2 1   
     2     1    16 1   
     3     1    40 1   
     4     1    49 1   
     5     2     8 1   
     6     2    36 1   
     7     2    50 1   
     8     3    36 1   
     9     3    41 2   
    10     3    42 1   
    11     4     5 1   
    12     4    17 1   
    13     4    42 1   
    14     4    51 1   
    15     5    43 1   
    16     5    52 1   
    17     5    53 1   
    18     6    17 1   
    19     6    43 1   
    20     6    44 1   
    21     6    54 1   
    22     7    18 1   
    23     7    44 1   
    24     7    55 1   
    25     7    56 1   
    26     8    19 1   
    27     8    57 1   
    28     8    58 1   
    29     9    10 ar  
    30     9    14 ar  
    31     9    28 1   
    32    10    11 ar  
    33    10    93 1   
    34    11    12 ar  
    35    11    59 1   
    36    12    13 ar  
    37    12    47 1   
    38    13    14 ar  
    39    13    60 1   
    40    14    61 1   
    41    15    25 1   
    42    15    35 1   
    43    15    62 1   
    44    15    63 1   
    45    16    35 1   
    46    16    64 1   
    47    16    65 1   
    48    17    18 1   
    49    17    66 1   
    50    18    67 1   
    51    18    68 1   
    52    19    20 ar  
    53    19    24 ar  
    54    20    21 ar  
    55    20    69 1   
    56    21    22 ar  
    57    21    70 1   
    58    22    23 ar  
    59    22    45 1   
    60    23    24 ar  
    61    23    71 1   
    62    24    72 1   
    63    25    26 1   
    64    25    27 1   
    65    25    73 1   
    66    26    74 1   
    67    26    75 1   
    68    26    76 1   
    69    27    77 1   
    70    27    78 1   
    71    27    79 1   
    72    28    30 1   
    73    28    46 1   
    74    28    80 1   
    75    29    31 1   
    76    29    45 1   
    77    29    81 1   
    78    29    82 1   
    79    30    83 1   
    80    30    84 1   
    81    30    85 1   
    82    31    32 2   
    83    31    37 1   
    84    32    48 1   
    85    32    86 1   
    86    33    34 1   
    87    33    37 2   
    88    33    48 1   
    89    34    87 1   
    90    34    88 1   
    91    34    89 1   
    92    35    47 1   
    93    36    90 1   
    94    38    47 2   
    95    39    47 2   
    96    40    91 1   
    97    46    92 1   
@<TRIPOS>SUBSTRUCTURE
     1 YUM         1 TEMP              0 ****  ****    0 ROOT
