@<TRIPOS>MOLECULE
YUM
   93    97     1     0     0
SMALL
bcc


@<TRIPOS>ATOM
      1 C13         19.8360    -0.5560    14.8010 c3         1 YUM       0.123100
      2 C15         19.4220    -0.2000    16.2300 c3         1 YUM       0.140700
      3 C17         21.1890     0.3480    17.8390 c          1 YUM       0.755100
      4 C20         22.8650     1.1810    19.2960 c5         1 YUM       0.138100
      5 C21         23.9850     2.1950    19.1540 c5         1 YUM       0.130400
      6 C24         22.8040     2.9900    20.9280 c5         1 YUM       0.321900
      7 C26         20.5670     3.2180    20.5390 c5         1 YUM       0.128400
      8 C28         18.0200     0.4210    16.3350 c3         1 YUM      -0.036100
      9 C01         16.3250    -6.5510    12.6530 ca         1 YUM      -0.026300
     10 C02         17.3370    -7.0500    13.4670 ca         1 YUM      -0.134500
     11 C03         17.9390    -6.2450    14.4210 ca         1 YUM      -0.038000
     12 C04         17.5280    -4.9260    14.5630 ca         1 YUM      -0.301500
     13 C05         16.5080    -4.4130    13.7690 ca         1 YUM      -0.038000
     14 C06         15.9180    -5.2300    12.8190 ca         1 YUM      -0.134500
     15 C11         20.4840    -3.8220    14.1420 c3         1 YUM       0.210800
     16 C12         19.0920    -1.7580    14.2050 c3         1 YUM       0.188800
     17 C23         22.2750     1.5560    20.6660 c5         1 YUM      -0.145700
     18 C25         20.7610     1.7300    20.7810 c5         1 YUM      -0.099400
     19 C29         17.7010     0.8270    17.7470 ca         1 YUM      -0.115300
     20 C30         17.6490     2.1720    18.1040 ca         1 YUM      -0.085000
     21 C31         17.4230     2.5660    19.4110 ca         1 YUM      -0.190000
     22 C32         17.2520     1.6110    20.4100 ca         1 YUM       0.138100
     23 C33         17.2650     0.2610    20.0690 ca         1 YUM      -0.190000
     24 C34         17.4930    -0.1140    18.7490 ca         1 YUM      -0.085000
     25 C36         21.9150    -3.3210    14.3210 c3         1 YUM      -0.063700
     26 C37         22.3310    -3.3140    15.7850 c3         1 YUM      -0.092600
     27 C38         22.8420    -4.1990    13.4880 c3         1 YUM      -0.092600
     28 C39         15.6260    -7.4290    11.6460 c3         1 YUM       0.188400
     29 C40         17.2880     1.2280    22.7730 c3         1 YUM       0.120100
     30 C41         14.4200    -8.1060    12.2920 c3         1 YUM      -0.130100
     31 C42         17.7520     2.0760    23.9080 cc         1 YUM       0.339600
     32 C43         17.0730     2.3180    25.0580 cd         1 YUM      -0.182400
     33 C45         19.2470     3.3870    24.8680 cd         1 YUM       0.451700
     34 C47         20.5070     4.1520    25.0680 c3         1 YUM      -0.134400
     35 N10         19.4720    -3.0200    14.8370 n3         1 YUM      -0.747500
     36 N16         20.4040     0.6930    16.8060 ns         1 YUM      -0.562900
     37 N46         18.9740     2.6860    23.8180 nc         1 YUM      -0.635000
     38 O08         19.0850    -4.7120    16.6420 o          1 YUM      -0.604300
     39 O09         17.3900    -2.9060    16.2290 o          1 YUM      -0.604300
     40 O14         19.6320     0.5850    14.0000 oh         1 YUM      -0.597800
     41 O18         21.2210    -0.7450    18.3700 o          1 YUM      -0.597000
     42 O19         21.9560     1.3830    18.2170 os         1 YUM      -0.426900
     43 O22         23.5060     3.3710    19.7660 os         1 YUM      -0.414600
     44 O27         21.7140     3.8200    21.1310 os         1 YUM      -0.393600
     45 O35         17.0820     2.0870    21.6630 os         1 YUM      -0.321900
     46 O48         16.5550    -8.3650    11.1540 oh         1 YUM      -0.594800
     47 S07         18.3580    -3.8640    15.7130 sy         1 YUM       1.309200
     48 S44         17.9990     3.3460    26.0710 ss         1 YUM      -0.195300
     49 H131        20.9020    -0.8100    14.8480 h1         1 YUM       0.053700
     50 H151        19.4420    -1.1150    16.8210 h1         1 YUM       0.094700
     51 H201        23.2430     0.1600    19.2790 h1         1 YUM       0.080700
     52 H211        24.8790     1.8140    19.6630 h1         1 YUM       0.057700
     53 H212        24.2520     2.4080    18.1180 h1         1 YUM       0.057700
     54 H241        23.4580     3.0710    21.8040 h2         1 YUM       0.073700
     55 H261        20.5020     3.4530    19.4710 h1         1 YUM       0.060200
     56 H262        19.6830     3.6190    21.0310 h1         1 YUM       0.060200
     57 H281        17.9550     1.2950    15.6860 hc         1 YUM       0.066200
     58 H282        17.2880    -0.3010    15.9700 hc         1 YUM       0.066200
     59 H031        18.7220    -6.6520    15.0470 ha         1 YUM       0.152000
     60 H051        16.1700    -3.3920    13.8810 ha         1 YUM       0.152000
     61 H061        15.1270    -4.8280    12.1970 ha         1 YUM       0.143000
     62 H111        20.2310    -3.8630    13.0770 h1         1 YUM       0.048200
     63 H112        20.4490    -4.8490    14.5090 h1         1 YUM       0.048200
     64 H122        18.0150    -1.5980    14.2500 h1         1 YUM       0.056200
     65 H121        19.3450    -1.8290    13.1420 h1         1 YUM       0.056200
     66 H231        22.6550     0.8560    21.4100 hc         1 YUM       0.073700
     67 H251        20.4450     1.4910    21.7980 hc         1 YUM       0.070200
     68 H252        20.1710     1.1090    20.1120 hc         1 YUM       0.070200
     69 H301        17.7980     2.9330    17.3460 ha         1 YUM       0.138500
     70 H311        17.4030     3.6180    19.6700 ha         1 YUM       0.139500
     71 H331        17.1020    -0.5090    20.8120 ha         1 YUM       0.139500
     72 H341        17.5060    -1.1690    18.5050 ha         1 YUM       0.138500
     73 H361        21.9880    -2.3020    13.9260 hc         1 YUM       0.041700
     74 H371        23.3510    -2.9440    15.8960 hc         1 YUM       0.041033
     75 H373        21.6820    -2.6840    16.3920 hc         1 YUM       0.041033
     76 H372        22.2970    -4.3250    16.1990 hc         1 YUM       0.041033
     77 H381        23.8730    -3.8490    13.5570 hc         1 YUM       0.041033
     78 H383        22.8190    -5.2340    13.8360 hc         1 YUM       0.041033
     79 H382        22.5600    -4.1950    12.4340 hc         1 YUM       0.041033
     80 H391        15.2590    -6.7860    10.8330 h1         1 YUM       0.038700
     81 H401        18.0540     0.4800    22.5500 h1         1 YUM       0.050700
     82 H402        16.3670     0.6990    23.0350 h1         1 YUM       0.050700
     83 H412        13.8970    -8.7360    11.5690 hc         1 YUM       0.047700
     84 H411        14.7270    -8.7280    13.1340 hc         1 YUM       0.047700
     85 H413        13.7090    -7.3650    12.6570 hc         1 YUM       0.047700
     86 H431        16.1010     1.9530    25.3480 h4         1 YUM       0.180000
     87 H472        21.1010     4.1110    24.1570 hc         1 YUM       0.062367
     88 H471        20.3080     5.1960    25.3070 hc         1 YUM       0.062367
     89 H473        21.0970     3.7340    25.8850 hc         1 YUM       0.062367
     90 H161        20.4550     1.6360    16.4530 hn         1 YUM       0.334500
     91 H141        20.1140     0.4760    13.1740 ho         1 YUM       0.404000
     92 H481        16.0820    -9.0040    10.6100 ho         1 YUM       0.411000
     93 H021        17.6660    -8.0750    13.3670 ha         1 YUM       0.143000
@<TRIPOS>BOND
     1     1     2 1   
     2     1    16 1   
     3     1    40 1   
     4     1    49 1   
     5     2     8 1   
     6     2    36 1   
     7     2    50 1   
     8     3    36 1   
     9     3    41 2   
    10     3    42 1   
    11     4     5 1   
    12     4    17 1   
    13     4    42 1   
    14     4    51 1   
    15     5    43 1   
    16     5    52 1   
    17     5    53 1   
    18     6    17 1   
    19     6    43 1   
    20     6    44 1   
    21     6    54 1   
    22     7    18 1   
    23     7    44 1   
    24     7    55 1   
    25     7    56 1   
    26     8    19 1   
    27     8    57 1   
    28     8    58 1   
    29     9    10 ar  
    30     9    14 ar  
    31     9    28 1   
    32    10    11 ar  
    33    10    93 1   
    34    11    12 ar  
    35    11    59 1   
    36    12    13 ar  
    37    12    47 1   
    38    13    14 ar  
    39    13    60 1   
    40    14    61 1   
    41    15    25 1   
    42    15    35 1   
    43    15    62 1   
    44    15    63 1   
    45    16    35 1   
    46    16    64 1   
    47    16    65 1   
    48    17    18 1   
    49    17    66 1   
    50    18    67 1   
    51    18    68 1   
    52    19    20 ar  
    53    19    24 ar  
    54    20    21 ar  
    55    20    69 1   
    56    21    22 ar  
    57    21    70 1   
    58    22    23 ar  
    59    22    45 1   
    60    23    24 ar  
    61    23    71 1   
    62    24    72 1   
    63    25    26 1   
    64    25    27 1   
    65    25    73 1   
    66    26    74 1   
    67    26    75 1   
    68    26    76 1   
    69    27    77 1   
    70    27    78 1   
    71    27    79 1   
    72    28    30 1   
    73    28    46 1   
    74    28    80 1   
    75    29    31 1   
    76    29    45 1   
    77    29    81 1   
    78    29    82 1   
    79    30    83 1   
    80    30    84 1   
    81    30    85 1   
    82    31    32 2   
    83    31    37 1   
    84    32    48 1   
    85    32    86 1   
    86    33    34 1   
    87    33    37 2   
    88    33    48 1   
    89    34    87 1   
    90    34    88 1   
    91    34    89 1   
    92    35    47 1   
    93    36    90 1   
    94    38    47 2   
    95    39    47 2   
    96    40    91 1   
    97    46    92 1   
@<TRIPOS>SUBSTRUCTURE
     1 YUM         1 TEMP              0 ****  ****    0 ROOT
