@<TRIPOS>MOLECULE
YUN
   38    40     1     0     0
SMALL
bcc


@<TRIPOS>ATOM
      1 CAL          2.7010     0.2740    -0.3300 ca         1 YUN      -0.124000
      2 CAX          3.8800     1.0050    -0.3880 ca         1 YUN       0.007100
      3 BR           5.5160     0.0580    -0.4300 br         1 YUN      -0.099100
      4 CAH          3.9040     2.3880    -0.4160 ca         1 YUN      -0.131000
      5 CAF          2.6860     3.0560    -0.3840 ca         1 YUN      -0.100000
      6 CAI          1.4940     2.3610    -0.3250 ca         1 YUN      -0.177000
      7 CAY          1.4860     0.9620    -0.2970 ca         1 YUN       0.169600
      8 NAT          0.2320     0.3590    -0.2290 nu         1 YUN      -0.735300
      9 C6          -0.1300    -0.9450    -0.1790 ca         1 YUN       0.731200
     10 C5          -1.5270    -1.2840    -0.0670 ca         1 YUN      -0.271600
     11 CAM         -2.5710    -0.3430    -0.0030 ca         1 YUN      -0.133000
     12 N1           0.7880    -1.8820    -0.2300 nb         1 YUN      -0.799000
     13 C2           0.3900    -3.1630    -0.1740 ca         1 YUN       0.689900
     14 N3          -0.8250    -3.6080    -0.0700 nb         1 YUN      -0.722000
     15 C4          -1.8020    -2.6640    -0.0120 ca         1 YUN       0.418600
     16 CAK         -3.1440    -3.0740     0.1120 ca         1 YUN      -0.148300
     17 CAJ         -4.1490    -2.1550     0.1770 ca         1 YUN      -0.149000
     18 CAZ         -3.8780    -0.7670     0.1190 ca         1 YUN       0.062600
     19 NAS         -4.9830     0.0760     0.2010 ns         1 YUN      -0.476100
     20 CAW         -5.0420     1.4340     0.0990 c          1 YUN       0.674100
     21 OAC         -4.0660     2.1350    -0.0900 o          1 YUN      -0.582100
     22 CAO         -6.4440     1.9840     0.2410 c3         1 YUN      -0.158400
     23 CAN         -6.5110     3.4980     0.1670 c3         1 YUN      -0.077100
     24 H1           2.7150    -0.8030    -0.3110 ha         1 YUN       0.188000
     25 H2           4.8320     2.9410    -0.4620 ha         1 YUN       0.149000
     26 H3           2.6700     4.1370    -0.4050 ha         1 YUN       0.136000
     27 H4           0.5590     2.9070    -0.3000 ha         1 YUN       0.135000
     28 H5          -0.5230     1.0240    -0.2040 hn         1 YUN       0.450800
     29 H6          -2.3750     0.7160    -0.0470 ha         1 YUN       0.161000
     30 H7           1.1870    -3.8970    -0.2230 h5         1 YUN       0.049100
     31 H8          -3.3610    -4.1330     0.1570 ha         1 YUN       0.156000
     32 H9          -5.1750    -2.4910     0.2750 ha         1 YUN       0.132000
     33 H10         -5.8640    -0.3910     0.3540 hn         1 YUN       0.317500
     34 H11         -7.0690     1.5360    -0.5370 hc         1 YUN       0.059200
     35 H12         -6.8590     1.6300     1.1900 hc         1 YUN       0.059200
     36 H13         -5.9090     3.9660     0.9460 hc         1 YUN       0.046033
     37 H14         -6.1660     3.8720    -0.7960 hc         1 YUN       0.046033
     38 H15         -7.5400     3.8280     0.3010 hc         1 YUN       0.046033
@<TRIPOS>BOND
     1     1     2 ar  
     2     1     7 ar  
     3     1    24 1   
     4     2     3 1   
     5     2     4 ar  
     6     4     5 ar  
     7     4    25 1   
     8     5     6 ar  
     9     5    26 1   
    10     6     7 ar  
    11     6    27 1   
    12     7     8 1   
    13     8     9 1   
    14     8    28 1   
    15     9    10 ar  
    16     9    12 ar  
    17    10    11 ar  
    18    10    15 ar  
    19    11    18 ar  
    20    11    29 1   
    21    12    13 ar  
    22    13    14 ar  
    23    13    30 1   
    24    14    15 ar  
    25    15    16 ar  
    26    16    17 ar  
    27    16    31 1   
    28    17    18 ar  
    29    17    32 1   
    30    18    19 1   
    31    19    20 1   
    32    19    33 1   
    33    20    21 2   
    34    20    22 1   
    35    22    23 1   
    36    22    34 1   
    37    22    35 1   
    38    23    36 1   
    39    23    37 1   
    40    23    38 1   
@<TRIPOS>SUBSTRUCTURE
     1 YUN         1 TEMP              0 ****  ****    0 ROOT
