@<TRIPOS>MOLECULE
YUN
   38    40     1     0     0
SMALL
No Charge or Current Charge


@<TRIPOS>ATOM
      1 CAL          2.5710     0.5590     0.2490 ca         1 YUN      -0.106000
      2 CAX          3.7900     1.2570     0.2440 ca         1 YUN       0.007100
      3 Br           5.2380     0.6520     1.3370 br         1 YUN      -0.099100
      4 CAH          3.9470     2.4010    -0.5550 ca         1 YUN      -0.113000
      5 CAF          2.8770     2.8510    -1.3460 ca         1 YUN      -0.082000
      6 CAI          1.6570     2.1510    -1.3380 ca         1 YUN      -0.159000
      7 CAY          1.4990     0.9950    -0.5530 ca         1 YUN       0.308000
      8 NAT          0.2610     0.3430    -0.5700 nu         1 YUN      -0.928900
      9 C6          -0.1540    -0.9670    -0.3110 ca         1 YUN       0.402900
     10 C5          -1.5200    -1.3020    -0.1250 ca         1 YUN      -0.141000
     11 CAM         -2.5550    -0.3350    -0.1250 ca         1 YUN      -0.115000
     12 N1           0.8050    -1.9100    -0.3050 nb         1 YUN      -0.273000
     13 C2           0.4070    -3.1780    -0.1000 ca         1 YUN       0.163900
     14 N3          -0.8580    -3.6020     0.0920 nb         1 YUN      -0.196000
     15 C4          -1.8330    -2.6700     0.0800 ca         1 YUN       0.025000
     16 CAK         -3.1730    -3.0430     0.2740 ca         1 YUN      -0.065000
     17 CAJ         -4.1950    -2.0810     0.2650 ca         1 YUN      -0.131000
     18 CAZ         -3.9000    -0.7220     0.0610 ca         1 YUN      -0.030000
     19 NAS         -4.9860     0.1960     0.0750 ns         1 YUN      -0.150000
     20 CAW         -5.0750     1.5440    -0.2510 c          1 YUN       0.607100
     21 OAC         -4.1460     2.2120    -0.6920 o          1 YUN      -0.582100
     22 CAO         -6.4740     2.1490    -0.0610 c3         1 YUN      -0.158400
     23 CAN         -6.5290     3.0930     1.1620 c3         1 YUN      -0.077100
     24 H1           2.4590    -0.3080     0.8900 ha         1 YUN       0.170000
     25 H2           4.8920     2.9410    -0.5570 ha         1 YUN       0.131000
     26 H3           2.9920     3.7400    -1.9620 ha         1 YUN       0.118000
     27 H4           0.8360     2.5070    -1.9540 ha         1 YUN       0.117000
     28 H5          -0.4920     0.9250    -0.9280 hn         1 YUN       0.506000
     29 H6          -2.3090     0.7130    -0.2510 ha         1 YUN       0.143000
     30 H7           1.1840    -3.9400    -0.0910 h5         1 YUN       0.049100
     31 H8          -3.4240    -4.0900     0.4330 ha         1 YUN       0.138000
     32 H9          -5.2250    -2.3980     0.4180 ha         1 YUN       0.114000
     33 H10         -5.8590    -0.2090     0.3880 hn         1 YUN       0.151000
     34 H11         -6.7310     2.7310    -0.9540 hc         1 YUN       0.059200
     35 H12         -7.2130     1.3530     0.0870 hc         1 YUN       0.059200
     36 H13         -6.2770     2.5520     2.0820 hc         1 YUN       0.046033
     37 H14         -5.8230     3.9240     1.0460 hc         1 YUN       0.046033
     38 H15         -7.5350     3.5130     1.2760 hc         1 YUN       0.046033
@<TRIPOS>BOND
     1     1     2 ar  
     2     1     7 ar  
     3     1    24 1   
     4     2     3 1   
     5     2     4 ar  
     6     4     5 ar  
     7     4    25 1   
     8     5     6 ar  
     9     5    26 1   
    10     6     7 ar  
    11     6    27 1   
    12     7     8 1   
    13     8     9 1   
    14     8    28 1   
    15     9    10 ar  
    16     9    12 ar  
    17    10    11 ar  
    18    10    15 ar  
    19    11    18 ar  
    20    11    29 1   
    21    12    13 ar  
    22    13    14 ar  
    23    13    30 1   
    24    14    15 ar  
    25    15    16 ar  
    26    16    17 ar  
    27    16    31 1   
    28    17    18 ar  
    29    17    32 1   
    30    18    19 1   
    31    19    20 1   
    32    19    33 1   
    33    20    21 2   
    34    20    22 1   
    35    22    23 1   
    36    22    34 1   
    37    22    35 1   
    38    23    36 1   
    39    23    37 1   
    40    23    38 1   
@<TRIPOS>SUBSTRUCTURE
     1 YUN         1 TEMP              0 ****  ****    0 ROOT
