@<TRIPOS>MOLECULE
YUO
   47    49     1     0     0
SMALL
No Charge or Current Charge


@<TRIPOS>ATOM
      1 C10         10.7280   -16.0440   -16.3320 ca         1 YUO      -0.058000
      2 C11         11.4090   -15.0120   -16.9900 ca         1 YUO       0.037400
      3 C13         12.9230   -13.8160   -17.9490 cc         1 YUO       0.377700
      4 C17         11.6240   -12.7510   -21.1290 c3         1 YUO       0.202800
      5 C20         14.7160   -11.9000   -21.4840 c3         1 YUO      -0.389100
      6 C23         10.7750   -13.8430   -17.3320 ca         1 YUO      -0.038200
      7 C24          9.4170   -13.6100   -17.0040 ca         1 YUO      -0.114600
      8 C25          8.6860   -12.3240   -17.2820 c          1 YUO       0.715600
      9 C28          8.7240   -14.6530   -16.3470 ca         1 YUO      -0.085000
     10 C2           7.1250   -18.9360   -13.8760 ca         1 YUO      -0.089300
     11 C3           7.8100   -19.2700   -15.0580 ca         1 YUO      -0.115000
     12 C4           8.5360   -18.2960   -15.7670 ca         1 YUO       0.127000
     13 C6           8.5950   -16.9540   -15.2990 cp         1 YUO       0.015000
     14 C7           7.8920   -16.6350   -14.1120 ca         1 YUO      -0.095000
     15 C8           7.1700   -17.6120   -13.4070 ca         1 YUO      -0.113000
     16 C9           9.3550   -15.8830   -16.0130 cp         1 YUO      -0.087000
     17 N12         12.7510   -15.0130   -17.3600 nd         1 YUO      -0.601100
     18 N14         11.7320   -13.0860   -17.9710 na         1 YUO      -0.169600
     19 N18         12.1100   -11.8610   -22.2030 n7         1 YUO      -0.862300
     20 O21         13.6810   -10.2540   -23.2880 o          1 YUO      -0.536000
     21 O22         13.0290    -9.9260   -20.8610 o          1 YUO      -0.536000
     22 O26          7.8080   -12.3360   -18.1310 o          1 YUO      -0.710000
     23 O27          8.9200   -11.3650   -16.5610 o          1 YUO      -0.710000
     24 S19         13.3870   -10.8130   -21.9680 s6         1 YUO       1.188100
     25 H35         11.2550   -16.9550   -16.0630 ha         1 YUO       0.113000
     26 H36         13.8380   -13.4460   -18.3950 h5         1 YUO       0.032800
     27 H38         10.9000   -11.1500   -18.0590 h1         1 YUO       0.085200
     28 H37         12.4570   -11.3250   -18.8400 h1         1 YUO       0.085200
     29 H39          9.8620   -12.5660   -19.9050 hc         1 YUO       0.093700
     30 H40         10.4810   -11.0260   -20.4470 hc         1 YUO       0.093700
     31 H42         12.4420   -13.3140   -20.6620 h1         1 YUO       0.042200
     32 H41         10.9610   -13.5000   -21.5830 h1         1 YUO       0.042200
     33 H46         15.6170   -11.2850   -21.3920 h1         1 YUO       0.096700
     34 H44         14.4570   -12.3500   -20.5220 h1         1 YUO       0.096700
     35 H45         14.8390   -12.6580   -22.2650 h1         1 YUO       0.096700
     36 H48          7.6770   -14.5070   -16.0880 ha         1 YUO       0.122000
     37 H31          6.9870   -20.5000   -12.3810 hc         1 YUO       0.035033
     38 H29          5.4980   -19.5590   -12.5740 hc         1 YUO       0.035033
     39 H30          5.9450   -20.7610   -13.7900 hc         1 YUO       0.035033
     40 H32          7.7770   -20.2900   -15.4350 ha         1 YUO       0.114000
     41 H33          7.9200   -15.6170   -13.7300 ha         1 YUO       0.130000
     42 H34          6.6460   -17.3380   -12.4940 ha         1 YUO       0.107000
     43 H43         12.4910   -12.4380   -22.9520 hn         1 YUO       0.472000
     44 C15         11.4900   -11.8210   -18.6910 c3         1 YUO       0.075600
     45 C1           6.3460   -19.9970   -13.1140 c3         1 YUO      -0.038800
     46 Cl5          9.3190   -18.7970   -17.2680 cl         1 YUO      -0.212000
     47 C16         10.7890   -12.0050   -20.0610 c3         1 YUO      -0.107400
@<TRIPOS>BOND
     1     1     2 ar  
     2     1    16 ar  
     3     1    25 1   
     4     2     6 ar  
     5     2    17 1   
     6     3    17 2   
     7     3    18 1   
     8     3    26 1   
     9     4    19 1   
    10     4    31 1   
    11     4    32 1   
    12     4    47 1   
    13     5    24 1   
    14     5    33 1   
    15     5    34 1   
    16     5    35 1   
    17     6     7 ar  
    18     6    18 1   
    19     7     8 1   
    20     7     9 ar  
    21     8    22 1   
    22     8    23 1   
    23     9    16 ar  
    24     9    36 1   
    25    10    11 ar  
    26    10    15 ar  
    27    10    45 1   
    28    11    12 ar  
    29    11    40 1   
    30    12    13 ar  
    31    12    46 1   
    32    13    14 ar  
    33    13    16 1   
    34    14    15 ar  
    35    14    41 1   
    36    15    42 1   
    37    18    44 1   
    38    19    24 1   
    39    19    43 1   
    40    20    24 2   
    41    21    24 2   
    42    27    44 1   
    43    28    44 1   
    44    29    47 1   
    45    30    47 1   
    46    37    45 1   
    47    38    45 1   
    48    39    45 1   
    49    44    47 1   
@<TRIPOS>SUBSTRUCTURE
     1 YUO         1 TEMP              0 ****  ****    0 ROOT
