@<TRIPOS>MOLECULE
YUO
   47    49     1     0     0
SMALL
abcg2


@<TRIPOS>ATOM
      1 C10         10.7020   -16.1950   -16.3810 ca         1 YUO      -0.058000
      2 C11         11.3770   -15.1750   -17.0450 ca         1 YUO       0.037400
      3 C13         12.8320   -13.9660   -17.9890 cc         1 YUO       0.377700
      4 C17         11.6360   -12.6200   -21.1560 c3         1 YUO       0.202800
      5 C20         14.8200   -11.7220   -21.4850 c3         1 YUO      -0.389100
      6 C23         10.7170   -13.9870   -17.4190 ca         1 YUO      -0.038200
      7 C24          9.3520   -13.7950   -17.1740 ca         1 YUO      -0.114600
      8 C25          8.5580   -12.5300   -17.4800 c          1 YUO       0.715600
      9 C28          8.7040   -14.8480   -16.5460 ca         1 YUO      -0.085000
     10 C2           7.1040   -18.8550   -13.7650 ca         1 YUO      -0.089300
     11 C3           7.7610   -19.2740   -14.9180 ca         1 YUO      -0.115000
     12 C4           8.4790   -18.3740   -15.6910 ca         1 YUO       0.127000
     13 C6           8.5810   -17.0240   -15.3540 cp         1 YUO       0.015000
     14 C7           7.8990   -16.6200   -14.2040 ca         1 YUO      -0.095000
     15 C8           7.1760   -17.5080   -13.4260 ca         1 YUO      -0.113000
     16 C9           9.3510   -16.0240   -16.1270 cp         1 YUO      -0.087000
     17 N12         12.7000   -15.1240   -17.4120 nd         1 YUO      -0.601100
     18 N14         11.6930   -13.2290   -18.0320 na         1 YUO      -0.169600
     19 N18         12.1380   -11.6550   -22.1420 n7         1 YUO      -0.862300
     20 O21         13.6910    -9.9400   -23.0470 o          1 YUO      -0.536000
     21 O22         13.1220    -9.9220   -20.6100 o          1 YUO      -0.536000
     22 O26          7.5160   -12.6850   -18.1400 o          1 YUO      -0.710000
     23 O27          9.0120   -11.4730   -17.0030 o          1 YUO      -0.710000
     24 S19         13.4210   -10.6730   -21.8210 s6         1 YUO       1.188100
     25 H35         11.2320   -17.0810   -16.0590 ha         1 YUO       0.113000
     26 H36         13.7520   -13.5810   -18.4090 h5         1 YUO       0.032800
     27 H38         11.0650   -11.2580   -17.9960 h1         1 YUO       0.085200
     28 H37         12.5910   -11.5550   -18.8100 h1         1 YUO       0.085200
     29 H39          9.9100   -12.5410   -19.8770 hc         1 YUO       0.093700
     30 H40         10.5480   -10.9770   -20.2860 hc         1 YUO       0.093700
     31 H42         12.4380   -13.2610   -20.7720 h1         1 YUO       0.042200
     32 H41         10.9880   -13.2780   -21.7320 h1         1 YUO       0.042200
     33 H46         15.6760   -11.0800   -21.2800 h1         1 YUO       0.096700
     34 H44         14.6210   -12.3500   -20.6180 h1         1 YUO       0.096700
     35 H45         15.0200   -12.3400   -22.3570 h1         1 YUO       0.096700
     36 H48          7.6430   -14.7510   -16.3490 ha         1 YUO       0.122000
     37 H31          7.0460   -20.3580   -12.2350 hc         1 YUO       0.035033
     38 H29          5.6110   -19.3450   -12.2940 hc         1 YUO       0.035033
     39 H30          5.8650   -20.5990   -13.5110 hc         1 YUO       0.035033
     40 H32          7.7060   -20.3120   -15.2210 ha         1 YUO       0.114000
     41 H33          7.9520   -15.5790   -13.9110 ha         1 YUO       0.130000
     42 H34          6.6680   -17.1470   -12.5410 ha         1 YUO       0.107000
     43 H43         12.2150   -12.0470   -23.0740 hn         1 YUO       0.472000
     44 C15         11.5790   -11.9320   -18.6750 c3         1 YUO       0.075600
     45 C1           6.3630   -19.8390   -12.9090 c3         1 YUO      -0.038800
     46 CL5          9.2190   -18.9790   -17.1420 cl         1 YUO      -0.212000
     47 C16         10.8430   -11.9900   -20.0090 c3         1 YUO      -0.107400
@<TRIPOS>BOND
     1     1     2 ar  
     2     1    16 ar  
     3     1    25 1   
     4     2     6 ar  
     5     2    17 1   
     6     3    17 2   
     7     3    18 1   
     8     3    26 1   
     9     4    19 1   
    10     4    31 1   
    11     4    32 1   
    12     4    47 1   
    13     5    24 1   
    14     5    33 1   
    15     5    34 1   
    16     5    35 1   
    17     6     7 ar  
    18     6    18 1   
    19     7     8 1   
    20     7     9 ar  
    21     8    22 1   
    22     8    23 1   
    23     9    16 ar  
    24     9    36 1   
    25    10    11 ar  
    26    10    15 ar  
    27    10    45 1   
    28    11    12 ar  
    29    11    40 1   
    30    12    13 ar  
    31    12    46 1   
    32    13    14 ar  
    33    13    16 1   
    34    14    15 ar  
    35    14    41 1   
    36    15    42 1   
    37    18    44 1   
    38    19    24 1   
    39    19    43 1   
    40    20    24 2   
    41    21    24 2   
    42    27    44 1   
    43    28    44 1   
    44    29    47 1   
    45    30    47 1   
    46    37    45 1   
    47    38    45 1   
    48    39    45 1   
    49    44    47 1   
@<TRIPOS>SUBSTRUCTURE
     1 YUO         1 TEMP              0 ****  ****    0 ROOT
