@<TRIPOS>MOLECULE
YUP
   80    83     1     0     0
SMALL
No Charge or Current Charge


@<TRIPOS>ATOM
      1 C13         19.9810    -1.0290    14.8270 c3         1 YUP       0.154300
      2 C15         19.7740    -0.4300    16.2530 c3         1 YUP       0.100700
      3 C17         21.7950     0.3770    17.5140 c          1 YUP       0.639100
      4 C20         23.5290     1.5540    18.6530 c5         1 YUP       0.160300
      5 C21         24.5830     2.6130    18.2310 c5         1 YUP       0.153600
      6 C24         23.5170     3.6230    20.0150 c5         1 YUP       0.372300
      7 C26         21.2460     3.7140    19.5810 c5         1 YUP       0.150600
      8 C28         18.3720     0.1860    16.5140 c3         1 YUP      -0.044100
      9 C01         15.6950    -5.8190    12.6030 ca         1 YUP      -0.075300
     10 C02         16.7310    -6.5950    13.1650 ca         1 YUP      -0.119000
     11 C03         17.4750    -6.1130    14.2550 ca         1 YUP      -0.019500
     12 C04         17.1970    -4.8420    14.7950 ca         1 YUP      -0.302500
     13 C05         16.1590    -4.0640    14.2420 ca         1 YUP      -0.019500
     14 C06         15.4180    -4.5510    13.1520 ca         1 YUP      -0.119000
     15 C11         20.4230    -4.4620    14.7820 c3         1 YUP       0.198800
     16 C12         19.1480    -2.3220    14.5680 c3         1 YUP       0.209800
     17 C23         23.0200     2.1380    20.0350 c5         1 YUP      -0.148700
     18 C25         21.4580     2.2890    20.1410 c5         1 YUP      -0.099400
     19 C29         18.2080     0.7090    17.9380 ca         1 YUP      -0.026300
     20 C30         18.2820    -0.1740    19.0340 ca         1 YUP      -0.164500
     21 C31         18.1380     0.3100    20.3430 ca         1 YUP       0.194000
     22 C32         17.9100     1.6720    20.5770 ca         1 YUP      -0.204000
     23 C33         17.8270     2.5520    19.4900 ca         1 YUP       0.194000
     24 C34         17.9780     2.0790    18.1770 ca         1 YUP      -0.164500
     25 C37         21.8450    -3.9470    14.4370 c3         1 YUP      -0.061700
     26 C38         22.6460    -5.0170    13.6600 c3         1 YUP      -0.092100
     27 C39         22.6220    -3.4900    15.6960 c3         1 YUP      -0.092100
     28 C40         14.8780    -6.3370    11.4190 c3         1 YUP       0.212600
     29 C41         14.1030    -7.6250    11.7540 c3         1 YUP      -0.086100
     30 F35         18.2170    -0.5440    21.3860 f          1 YUP      -0.173000
     31 F36         17.6040     3.8650    19.7070 f          1 YUP      -0.173000
     32 N10         19.5030    -3.4880    15.4330 n3         1 YUP      -0.728500
     33 N16         20.8190     0.5540    16.5760 ns         1 YUP      -0.509900
     34 O08         17.4270    -3.1400    16.8600 o          1 YUP      -0.533500
     35 O09         18.6810    -5.3510    16.9670 o          1 YUP      -0.533500
     36 O14         19.6840    -0.0450    13.8130 oh         1 YUP      -0.667000
     37 O18         21.9660    -0.6400    18.1670 o          1 YUP      -0.536000
     38 O19         22.4970     1.5450    17.6230 os         1 YUP      -0.454100
     39 O22         24.0270     3.8570    18.6930 os         1 YUP      -0.459000
     40 O27         22.3380     4.4330    20.1800 os         1 YUP      -0.438000
     41 O42         15.7400    -6.5860    10.3050 oh         1 YUP      -0.652000
     42 S07         18.1560    -4.2220    16.1910 sy         1 YUP       1.158600
     43 H131        21.0390    -1.3000    14.7490 h1         1 YUP       0.055700
     44 H151        19.8840    -1.2710    16.9520 h1         1 YUP       0.102700
     45 H201        24.0000     0.5650    18.7450 h1         1 YUP       0.088700
     46 H211        24.7460     2.6480    17.1460 h1         1 YUP       0.060700
     47 H212        25.5470     2.4410    18.7300 h1         1 YUP       0.060700
     48 H241        24.2760     3.8350    20.7810 h2         1 YUP       0.080700
     49 H261        20.2890     4.1580    19.8830 h1         1 YUP       0.056200
     50 H262        21.3310     3.7540    18.4860 h1         1 YUP       0.056200
     51 H282        18.1950     0.9940    15.7940 hc         1 YUP       0.069700
     52 H281        17.5960    -0.5610    16.3170 hc         1 YUP       0.069700
     53 H031        18.2680    -6.7320    14.6730 ha         1 YUP       0.135000
     54 H051        15.9200    -3.0840    14.6520 ha         1 YUP       0.135000
     55 H061        14.6210    -3.9380    12.7360 ha         1 YUP       0.126000
     56 H112        19.9600    -4.8370    13.8580 h1         1 YUP       0.051700
     57 H111        20.5700    -5.3370    15.4290 h1         1 YUP       0.051700
     58 H121        18.0920    -2.0460    14.6810 h1         1 YUP       0.063200
     59 H122        19.2590    -2.5980    13.5110 h1         1 YUP       0.063200
     60 H231        23.4410     1.5840    20.8820 hc         1 YUP       0.078700
     61 H251        21.1390     2.2530    21.1890 hc         1 YUP       0.064200
     62 H252        20.8710     1.5260    19.6240 hc         1 YUP       0.064200
     63 H301        18.4510    -1.2360    18.8750 ha         1 YUP       0.147000
     64 H321        17.7960     2.0430    21.5910 ha         1 YUP       0.149000
     65 H341        17.9150     2.7800    17.3490 ha         1 YUP       0.147000
     66 H371        21.7490    -3.0900    13.7610 hc         1 YUP       0.046700
     67 H381        23.6340    -4.6330    13.3780 hc         1 YUP       0.040367
     68 H383        22.7890    -5.9180    14.2690 hc         1 YUP       0.040367
     69 H382        22.1210    -5.3030    12.7410 hc         1 YUP       0.040367
     70 H392        22.0690    -2.7240    16.2490 hc         1 YUP       0.040367
     71 H391        22.7940    -4.3350    16.3740 hc         1 YUP       0.040367
     72 H393        23.5960    -3.0690    15.4190 hc         1 YUP       0.040367
     73 H401        14.1420    -5.5700    11.1430 h1         1 YUP       0.036700
     74 H412        13.4400    -7.4570    12.6110 hc         1 YUP       0.049367
     75 H411        13.4870    -7.9350    10.9020 hc         1 YUP       0.049367
     76 H413        14.7850    -8.4460    12.0020 hc         1 YUP       0.049367
     77 H161        20.7800     1.4730    16.1560 hn         1 YUP       0.324500
     78 H141        20.4150     0.6110    13.8250 ho         1 YUP       0.452000
     79 H421        16.2890    -5.7790    10.1960 ho         1 YUP       0.445000
     80 H021        16.9620    -7.5750    12.7540 ha         1 YUP       0.126000
@<TRIPOS>BOND
     1     1     2 1   
     2     1    16 1   
     3     1    36 1   
     4     1    43 1   
     5     2     8 1   
     6     2    33 1   
     7     2    44 1   
     8     3    33 1   
     9     3    37 2   
    10     3    38 1   
    11     4     5 1   
    12     4    17 1   
    13     4    38 1   
    14     4    45 1   
    15     5    39 1   
    16     5    46 1   
    17     5    47 1   
    18     6    17 1   
    19     6    39 1   
    20     6    40 1   
    21     6    48 1   
    22     7    18 1   
    23     7    40 1   
    24     7    49 1   
    25     7    50 1   
    26     8    19 1   
    27     8    51 1   
    28     8    52 1   
    29     9    10 ar  
    30     9    14 ar  
    31     9    28 1   
    32    10    11 ar  
    33    10    80 1   
    34    11    12 ar  
    35    11    53 1   
    36    12    13 ar  
    37    12    42 1   
    38    13    14 ar  
    39    13    54 1   
    40    14    55 1   
    41    15    25 1   
    42    15    32 1   
    43    15    56 1   
    44    15    57 1   
    45    16    32 1   
    46    16    58 1   
    47    16    59 1   
    48    17    18 1   
    49    17    60 1   
    50    18    61 1   
    51    18    62 1   
    52    19    20 ar  
    53    19    24 ar  
    54    20    21 ar  
    55    20    63 1   
    56    21    22 ar  
    57    21    30 1   
    58    22    23 ar  
    59    22    64 1   
    60    23    24 ar  
    61    23    31 1   
    62    24    65 1   
    63    25    26 1   
    64    25    27 1   
    65    25    66 1   
    66    26    67 1   
    67    26    68 1   
    68    26    69 1   
    69    27    70 1   
    70    27    71 1   
    71    27    72 1   
    72    28    29 1   
    73    28    41 1   
    74    28    73 1   
    75    29    74 1   
    76    29    75 1   
    77    29    76 1   
    78    32    42 1   
    79    33    77 1   
    80    34    42 2   
    81    35    42 2   
    82    36    78 1   
    83    41    79 1   
@<TRIPOS>SUBSTRUCTURE
     1 YUP         1 TEMP              0 ****  ****    0 ROOT
