@<TRIPOS>MOLECULE
YUP
   80    83     1     0     0
SMALL
bcc


@<TRIPOS>ATOM
      1 C13         20.0670    -0.7150    14.7040 c3         1 YUP       0.131100
      2 C15         19.7680    -0.2450    16.1370 c3         1 YUP       0.100700
      3 C17         21.6920     0.3080    17.5600 c          1 YUP       0.755100
      4 C20         23.4360     1.2110    18.8980 c5         1 YUP       0.137100
      5 C21         24.6220     2.1050    18.5900 c5         1 YUP       0.130400
      6 C24         23.4880     3.2640    20.1990 c5         1 YUP       0.325900
      7 C26         21.2400     3.4740    19.8030 c5         1 YUP       0.127400
      8 C28         18.4130     0.4550    16.2830 c3         1 YUP      -0.044100
      9 C01         15.8310    -6.0550    12.9060 ca         1 YUP      -0.075300
     10 C02         16.9100    -6.6890    13.5160 ca         1 YUP      -0.137000
     11 C03         17.6720    -6.0340    14.4680 ca         1 YUP      -0.037500
     12 C04         17.3580    -4.7230    14.8090 ca         1 YUP      -0.302500
     13 C05         16.2760    -4.0770    14.2240 ca         1 YUP      -0.037500
     14 C06         15.5200    -4.7510    13.2770 ca         1 YUP      -0.137000
     15 C11         20.4390    -4.0810    14.2320 c3         1 YUP       0.198800
     16 C12         19.2370    -1.9170    14.2500 c3         1 YUP       0.209800
     17 C23         22.9150     1.8260    20.2060 c5         1 YUP      -0.148700
     18 C25         21.4100     2.0590    20.3390 c5         1 YUP      -0.099400
     19 C29         18.1450     0.8720    17.7030 ca         1 YUP      -0.026300
     20 C30         17.9930    -0.0870    18.7050 ca         1 YUP      -0.182500
     21 C31         17.7440     0.3280    19.9970 ca         1 YUP       0.158900
     22 C32         17.6340     1.6590    20.3540 ca         1 YUP      -0.222000
     23 C33         17.7870     2.5810    19.3380 ca         1 YUP       0.158900
     24 C34         18.0480     2.2200    18.0300 ca         1 YUP      -0.182500
     25 C37         21.8830    -3.6110    14.0850 c3         1 YUP      -0.061700
     26 C38         22.6270    -4.6160    13.2110 c3         1 YUP      -0.092100
     27 C39         22.5620    -3.4530    15.4380 c3         1 YUP      -0.092100
     28 C40         14.9970    -6.7810    11.8730 c3         1 YUP       0.189400
     29 C41         13.9570    -7.6600    12.5510 c3         1 YUP      -0.086100
     30 F35         17.5950    -0.5980    20.9550 f          1 YUP      -0.137900
     31 F36         17.6800     3.8830    19.6390 f          1 YUP      -0.137900
     32 N10         19.5850    -3.1430    14.9710 n3         1 YUP      -0.728500
     33 N16         20.8120     0.6440    16.6010 ns         1 YUP      -0.576900
     34 O08         17.6540    -2.7600    16.5230 o          1 YUP      -0.604300
     35 O09         19.0780    -4.8090    16.7760 o          1 YUP      -0.604300
     36 O14         19.8330     0.2940    13.7480 oh         1 YUP      -0.604800
     37 O18         21.7600    -0.7720    18.1100 o          1 YUP      -0.585000
     38 O19         22.5030     1.3420    17.8300 os         1 YUP      -0.430900
     39 O22         24.2330     3.3950    19.0100 os         1 YUP      -0.412600
     40 O27         22.4240     4.1520    20.2090 os         1 YUP      -0.391600
     41 O42         15.7840    -7.6100    11.0500 oh         1 YUP      -0.589800
     42 S07         18.4190    -3.8390    15.9180 sy         1 YUP       1.300200
     43 H131        21.1220    -1.0140    14.6960 h1         1 YUP       0.055700
     44 H151        19.7920    -1.1230    16.7820 h1         1 YUP       0.102700
     45 H201        23.7300     0.1690    19.0160 h1         1 YUP       0.088700
     46 H211        24.8830     2.1320    17.5320 h1         1 YUP       0.060700
     47 H212        25.4960     1.7470    19.1480 h1         1 YUP       0.060700
     48 H241        24.1260     3.4900    21.0610 h2         1 YUP       0.080700
     49 H261        20.3870     3.9990    20.2310 h1         1 YUP       0.056200
     50 H262        21.1310     3.4830    18.7130 h1         1 YUP       0.056200
     51 H282        18.3860     1.3340    15.6370 hc         1 YUP       0.069700
     52 H281        17.6200    -0.2110    15.9420 hc         1 YUP       0.069700
     53 H031        18.5020    -6.5480    14.9340 ha         1 YUP       0.153000
     54 H051        16.0190    -3.0610    14.4940 ha         1 YUP       0.153000
     55 H061        14.6790    -4.2470    12.8160 ha         1 YUP       0.144000
     56 H112        20.0040    -4.2660    13.2420 h1         1 YUP       0.051700
     57 H111        20.4600    -5.0360    14.7580 h1         1 YUP       0.051700
     58 H121        18.1720    -1.6940    14.3300 h1         1 YUP       0.063200
     59 H122        19.4310    -2.0810    13.1870 h1         1 YUP       0.063200
     60 H231        23.3080     1.2480    21.0420 hc         1 YUP       0.078700
     61 H251        21.1320     2.0250    21.3940 hc         1 YUP       0.064200
     62 H252        20.7850     1.3290    19.8280 hc         1 YUP       0.064200
     63 H301        18.0510    -1.1430    18.4780 ha         1 YUP       0.165000
     64 H321        17.4320     1.9610    21.3730 ha         1 YUP       0.167000
     65 H341        18.1600     2.9830    17.2700 ha         1 YUP       0.165000
     66 H371        21.8960    -2.6500    13.5600 hc         1 YUP       0.046700
     67 H381        23.6640    -4.3110    13.0660 hc         1 YUP       0.040367
     68 H383        22.6340    -5.6060    13.6720 hc         1 YUP       0.040367
     69 H382        22.1680    -4.7100    12.2260 hc         1 YUP       0.040367
     70 H392        22.0540    -2.7300    16.0760 hc         1 YUP       0.040367
     71 H391        22.5840    -4.4060    15.9710 hc         1 YUP       0.040367
     72 H393        23.5930    -3.1180    15.3160 hc         1 YUP       0.040367
     73 H401        14.4710    -6.0260    11.2740 h1         1 YUP       0.036700
     74 H412        13.3000    -7.0560    13.1760 hc         1 YUP       0.049367
     75 H411        13.3420    -8.1700    11.8090 hc         1 YUP       0.049367
     76 H413        14.4320    -8.4100    13.1850 hc         1 YUP       0.049367
     77 H161        20.8130     1.5980    16.2700 hn         1 YUP       0.324500
     78 H141        20.5200     0.9630    13.8240 ho         1 YUP       0.413000
     79 H421        16.4020    -7.0560    10.5610 ho         1 YUP       0.406000
     80 H021        17.1650    -7.7060    13.2460 ha         1 YUP       0.144000
@<TRIPOS>BOND
     1     1     2 1   
     2     1    16 1   
     3     1    36 1   
     4     1    43 1   
     5     2     8 1   
     6     2    33 1   
     7     2    44 1   
     8     3    33 1   
     9     3    37 2   
    10     3    38 1   
    11     4     5 1   
    12     4    17 1   
    13     4    38 1   
    14     4    45 1   
    15     5    39 1   
    16     5    46 1   
    17     5    47 1   
    18     6    17 1   
    19     6    39 1   
    20     6    40 1   
    21     6    48 1   
    22     7    18 1   
    23     7    40 1   
    24     7    49 1   
    25     7    50 1   
    26     8    19 1   
    27     8    51 1   
    28     8    52 1   
    29     9    10 ar  
    30     9    14 ar  
    31     9    28 1   
    32    10    11 ar  
    33    10    80 1   
    34    11    12 ar  
    35    11    53 1   
    36    12    13 ar  
    37    12    42 1   
    38    13    14 ar  
    39    13    54 1   
    40    14    55 1   
    41    15    25 1   
    42    15    32 1   
    43    15    56 1   
    44    15    57 1   
    45    16    32 1   
    46    16    58 1   
    47    16    59 1   
    48    17    18 1   
    49    17    60 1   
    50    18    61 1   
    51    18    62 1   
    52    19    20 ar  
    53    19    24 ar  
    54    20    21 ar  
    55    20    63 1   
    56    21    22 ar  
    57    21    30 1   
    58    22    23 ar  
    59    22    64 1   
    60    23    24 ar  
    61    23    31 1   
    62    24    65 1   
    63    25    26 1   
    64    25    27 1   
    65    25    66 1   
    66    26    67 1   
    67    26    68 1   
    68    26    69 1   
    69    27    70 1   
    70    27    71 1   
    71    27    72 1   
    72    28    29 1   
    73    28    41 1   
    74    28    73 1   
    75    29    74 1   
    76    29    75 1   
    77    29    76 1   
    78    32    42 1   
    79    33    77 1   
    80    34    42 2   
    81    35    42 2   
    82    36    78 1   
    83    41    79 1   
@<TRIPOS>SUBSTRUCTURE
     1 YUP         1 TEMP              0 ****  ****    0 ROOT
