@<TRIPOS>MOLECULE
YUQ
   63    67     1     0     0
SMALL
No Charge or Current Charge


@<TRIPOS>ATOM
      1 C10        -21.7470   -11.6340     9.7560 cc         1 YUQ      -0.164400
      2 C01        -22.3950   -12.4070    15.7400 c3         1 YUQ      -0.094100
      3 C02        -23.0070   -12.0740    14.3600 c3         1 YUQ       0.188000
      4 C03        -22.2320   -12.6680    13.1730 ca         1 YUQ      -0.131300
      5 C04        -22.2380   -12.0240    11.9170 ca         1 YUQ      -0.055200
      6 C06        -22.6080   -10.6150    10.1840 cd         1 YUQ      -0.042300
      7 C07        -23.1760    -9.4800     9.3740 c          1 YUQ       0.720200
      8 C11        -21.2110   -11.7610     8.4050 ca         1 YUQ       0.102200
      9 C12        -21.5630   -12.8660     7.6110 ca         1 YUQ      -0.129000
     10 C13        -21.0250   -13.0190     6.3200 ca         1 YUQ      -0.092000
     11 C14        -20.1270   -12.0670     5.8020 ca         1 YUQ       0.146000
     12 C17        -20.0010    -9.7870     3.3560 c3         1 YUQ      -0.336100
     13 C20        -19.7530   -10.9690     6.6210 ca         1 YUQ       0.183000
     14 C22        -20.2890   -10.8230     7.9090 ca         1 YUQ      -0.110000
     15 C23        -21.5430   -12.5280    10.8530 ca         1 YUQ      -0.082800
     16 C24        -20.7980   -13.7090    10.9320 ca         1 YUQ      -0.065000
     17 C25        -20.7850   -14.3900    12.1640 ca         1 YUQ      -0.165000
     18 C26        -21.4960   -13.8780    13.2730 ca         1 YUQ      -0.110000
     19 C28        -24.9810   -13.7770    14.5210 c5         1 YUQ       0.087000
     20 C29        -26.4960   -13.4050    14.5060 cy         1 YUQ       0.137000
     21 C30        -27.5810   -14.4570    14.0840 cy         1 YUQ      -0.077900
     22 C31        -28.5670   -13.7040    15.0410 cy         1 YUQ      -0.079700
     23 C32        -29.6810   -14.5020    15.7370 c3         1 YUQ       0.159800
     24 C34        -27.2840   -13.3440    15.8630 cy         1 YUQ      -0.077900
     25 C36        -25.3720   -11.5480    13.7810 c          1 YUQ       0.690100
     26 F21        -18.8440   -10.0620     6.1910 f          1 YUQ      -0.185000
     27 N05        -22.9030   -10.8590    11.5520 na         1 YUQ      -0.189700
     28 N15        -19.6080   -12.2620     4.5120 nu         1 YUQ      -0.879100
     29 N27        -24.4380   -12.4280    14.2980 n          1 YUQ      -0.442800
     30 N33        -30.7510   -14.9940    14.8510 n8         1 YUQ      -0.994200
     31 O08        -23.9110    -8.6910     9.9530 o          1 YUQ      -0.691500
     32 O09        -22.9150    -9.3740     8.1840 o          1 YUQ      -0.691500
     33 O18        -19.3070   -11.9940     2.0610 o          1 YUQ      -0.554000
     34 O19        -21.6210   -11.8690     3.0970 o          1 YUQ      -0.554000
     35 O35        -26.5730   -12.1710    13.7750 os         1 YUQ      -0.405100
     36 O37        -25.1570   -10.4150    13.3750 o          1 YUQ      -0.529000
     37 S16        -20.1950   -11.5420     3.1330 s6         1 YUQ       1.180100
     38 H011       -22.9140   -11.8470    16.5270 hc         1 YUQ       0.037367
     39 H013       -22.4770   -13.4730    15.9790 hc         1 YUQ       0.037367
     40 H012       -21.3350   -12.1250    15.7680 hc         1 YUQ       0.037367
     41 H021       -22.9220   -10.9820    14.2760 h1         1 YUQ       0.084700
     42 H121       -22.2580   -13.6080     7.9980 ha         1 YUQ       0.120000
     43 H131       -21.3160   -13.8780     5.7200 ha         1 YUQ       0.105000
     44 H173       -20.6090    -9.4930     4.2170 h1         1 YUQ       0.104700
     45 H172       -18.9380    -9.5930     3.5290 h1         1 YUQ       0.104700
     46 H171       -20.3500    -9.3000     2.4400 h1         1 YUQ       0.104700
     47 H221       -19.9870    -9.9830     8.5260 ha         1 YUQ       0.153000
     48 H241       -20.2520   -14.0900    10.0720 ha         1 YUQ       0.106000
     49 H251       -20.2240   -15.3160    12.2620 ha         1 YUQ       0.093000
     50 H261       -21.4670   -14.4350    14.2050 ha         1 YUQ       0.089000
     51 H282       -24.6930   -14.4560    13.7060 h1         1 YUQ       0.060700
     52 H281       -24.6480   -14.2110    15.4720 h1         1 YUQ       0.060700
     53 H302       -27.8540   -14.4620    13.0240 hc         1 YUQ       0.064450
     54 H301       -27.3510   -15.4860    14.3850 hc         1 YUQ       0.064450
     55 H311       -29.0320   -12.8260    14.5740 hc         1 YUQ       0.067700
     56 H321       -29.2260   -15.3650    16.2420 h1         1 YUQ       0.025200
     57 H322       -30.1350   -13.8580    16.5030 h1         1 YUQ       0.025200
     58 H342       -26.9830   -14.1050    16.5940 hc         1 YUQ       0.064450
     59 H341       -27.2940   -12.3720    16.3660 hc         1 YUQ       0.064450
     60 H051       -23.5630   -10.3290    12.1180 hn         1 YUQ       0.390000
     61 H151       -19.5990   -13.2280     4.2130 hn         1 YUQ       0.484000
     62 H332       -31.4730   -15.4510    15.4210 hn         1 YUQ       0.390500
     63 H1         -31.2390   -14.1900    14.4390 hn         1 YUQ       0.390500
@<TRIPOS>BOND
     1     1     6 2   
     2     1     8 1   
     3     1    15 1   
     4     2     3 1   
     5     2    38 1   
     6     2    39 1   
     7     2    40 1   
     8     3     4 1   
     9     3    29 1   
    10     3    41 1   
    11     4     5 ar  
    12     4    18 ar  
    13     5    15 ar  
    14     5    27 1   
    15     6     7 1   
    16     6    27 1   
    17     7    31 1   
    18     7    32 1   
    19     8     9 ar  
    20     8    14 ar  
    21     9    10 ar  
    22     9    42 1   
    23    10    11 ar  
    24    10    43 1   
    25    11    13 ar  
    26    11    28 1   
    27    12    37 1   
    28    12    44 1   
    29    12    45 1   
    30    12    46 1   
    31    13    14 ar  
    32    13    26 1   
    33    14    47 1   
    34    15    16 ar  
    35    16    17 ar  
    36    16    48 1   
    37    17    18 ar  
    38    17    49 1   
    39    18    50 1   
    40    19    20 1   
    41    19    29 1   
    42    19    51 1   
    43    19    52 1   
    44    20    21 1   
    45    20    24 1   
    46    20    35 1   
    47    21    22 1   
    48    21    53 1   
    49    21    54 1   
    50    22    23 1   
    51    22    24 1   
    52    22    55 1   
    53    23    30 1   
    54    23    56 1   
    55    23    57 1   
    56    24    58 1   
    57    24    59 1   
    58    25    29 1   
    59    25    35 1   
    60    25    36 2   
    61    27    60 1   
    62    28    37 1   
    63    28    61 1   
    64    30    62 1   
    65    30    63 1   
    66    33    37 2   
    67    34    37 2   
@<TRIPOS>SUBSTRUCTURE
     1 YUQ         1 TEMP              0 ****  ****    0 ROOT
