@<TRIPOS>MOLECULE
YUQ
   63    67     1     0     0
SMALL
abcg2


@<TRIPOS>ATOM
      1 C10        -21.8160   -11.5370     9.7890 cc         1 YUQ      -0.164400
      2 C01        -22.4510   -12.6030    15.7370 c3         1 YUQ      -0.094100
      3 C02        -23.0000   -12.0940    14.4110 c3         1 YUQ       0.188000
      4 C03        -22.3460   -12.7090    13.1910 ca         1 YUQ      -0.131300
      5 C04        -22.3060   -12.0110    11.9750 ca         1 YUQ      -0.055200
      6 C06        -22.4740   -10.4670    10.3580 cd         1 YUQ      -0.042300
      7 C07        -22.9610    -9.1460     9.8030 c          1 YUQ       0.720200
      8 C11        -21.2580   -11.6790     8.4410 ca         1 YUQ       0.102200
      9 C12        -21.5090   -12.8320     7.6940 ca         1 YUQ      -0.129000
     10 C13        -20.9450   -13.0080     6.4420 ca         1 YUQ      -0.092000
     11 C14        -20.1000   -12.0470     5.8990 ca         1 YUQ       0.146000
     12 C17        -20.0660   -10.1170     3.0570 c3         1 YUQ      -0.336100
     13 C20        -19.8550   -10.9080     6.6560 ca         1 YUQ       0.183000
     14 C22        -20.4160   -10.7090     7.8990 ca         1 YUQ      -0.110000
     15 C23        -21.7030   -12.5370    10.8110 ca         1 YUQ      -0.082800
     16 C24        -21.1210   -13.8100    10.8630 ca         1 YUQ      -0.065000
     17 C25        -21.1720   -14.5140    12.0470 ca         1 YUQ      -0.165000
     18 C26        -21.7770   -13.9690    13.1910 ca         1 YUQ      -0.110000
     19 C28        -25.1050   -13.5430    14.3740 c5         1 YUQ       0.087000
     20 C29        -26.5620   -13.1130    14.4650 cy         1 YUQ       0.137000
     21 C30        -27.6750   -13.9430    13.8250 cy         1 YUQ      -0.077900
     22 C31        -28.5680   -13.6520    15.0480 cy         1 YUQ      -0.079700
     23 C32        -29.3480   -14.8070    15.6330 c3         1 YUQ       0.159800
     24 C34        -27.3090   -13.1840    15.8080 cy         1 YUQ      -0.077900
     25 C36        -25.2980   -11.2820    14.0030 c          1 YUQ       0.690100
     26 F21        -19.0290    -9.9740     6.1650 f          1 YUQ      -0.185000
     27 N05        -22.7550   -10.7660    11.6610 na         1 YUQ      -0.189700
     28 N15        -19.4580   -12.2130     4.6470 nu         1 YUQ      -0.879100
     29 N27        -24.4430   -12.2590    14.3620 n          1 YUQ      -0.442800
     30 N33        -30.3410   -15.2870    14.6840 n8         1 YUQ      -0.994200
     31 O08        -23.4430    -8.3690    10.6500 o          1 YUQ      -0.691500
     32 O09        -22.8470    -8.9740     8.5790 o          1 YUQ      -0.691500
     33 O18        -19.6020   -12.5610     2.1820 o          1 YUQ      -0.554000
     34 O19        -21.7280   -12.1000     3.4320 o          1 YUQ      -0.554000
     35 O35        -26.5450   -11.7700    13.9550 os         1 YUQ      -0.405100
     36 O37        -25.0490   -10.1230    13.7480 o          1 YUQ      -0.529000
     37 S16        -20.3050   -11.8640     3.2480 s6         1 YUQ       1.180100
     38 H011       -22.9280   -12.0710    16.5590 hc         1 YUQ       0.037367
     39 H013       -22.6200   -13.6690    15.8850 hc         1 YUQ       0.037367
     40 H012       -21.3780   -12.4250    15.7940 hc         1 YUQ       0.037367
     41 H021       -22.8220   -11.0160    14.3880 h1         1 YUQ       0.084700
     42 H121       -22.1670   -13.5950     8.0890 ha         1 YUQ       0.120000
     43 H131       -21.1530   -13.9080     5.8770 ha         1 YUQ       0.105000
     44 H173       -20.5190    -9.5870     3.8910 h1         1 YUQ       0.104700
     45 H172       -19.0030    -9.9020     2.9980 h1         1 YUQ       0.104700
     46 H171       -20.5610    -9.8250     2.1320 h1         1 YUQ       0.104700
     47 H221       -20.1770    -9.8110     8.4520 ha         1 YUQ       0.153000
     48 H241       -20.6350   -14.2360     9.9930 ha         1 YUQ       0.106000
     49 H251       -20.7320   -15.5010    12.1050 ha         1 YUQ       0.093000
     50 H261       -21.7800   -14.5580    14.0990 ha         1 YUQ       0.089000
     51 H282       -24.9010   -14.1100    13.4580 h1         1 YUQ       0.060700
     52 H281       -24.8120   -14.1550    15.2260 h1         1 YUQ       0.060700
     53 H302       -28.0140   -13.6270    12.8380 hc         1 YUQ       0.064450
     54 H301       -27.3910   -14.9970    13.7740 hc         1 YUQ       0.064450
     55 H311       -29.2400   -12.8100    14.8520 hc         1 YUQ       0.067700
     56 H321       -28.6530   -15.6260    15.8430 h1         1 YUQ       0.025200
     57 H322       -29.7690   -14.5010    16.6020 h1         1 YUQ       0.025200
     58 H342       -26.9000   -13.9750    16.4420 hc         1 YUQ       0.064450
     59 H341       -27.3650   -12.2640    16.3890 hc         1 YUQ       0.064450
     60 H051       -23.2970   -10.1510    12.2500 hn         1 YUQ       0.390000
     61 H151       -18.9430   -13.0810     4.5400 hn         1 YUQ       0.484000
     62 H332       -30.8130   -16.0960    15.0660 hn         1 YUQ       0.390500
     63 H1         -31.0590   -14.5830    14.5640 hn         1 YUQ       0.390500
@<TRIPOS>BOND
     1     1     6 2   
     2     1     8 1   
     3     1    15 1   
     4     2     3 1   
     5     2    38 1   
     6     2    39 1   
     7     2    40 1   
     8     3     4 1   
     9     3    29 1   
    10     3    41 1   
    11     4     5 ar  
    12     4    18 ar  
    13     5    15 ar  
    14     5    27 1   
    15     6     7 1   
    16     6    27 1   
    17     7    31 1   
    18     7    32 1   
    19     8     9 ar  
    20     8    14 ar  
    21     9    10 ar  
    22     9    42 1   
    23    10    11 ar  
    24    10    43 1   
    25    11    13 ar  
    26    11    28 1   
    27    12    37 1   
    28    12    44 1   
    29    12    45 1   
    30    12    46 1   
    31    13    14 ar  
    32    13    26 1   
    33    14    47 1   
    34    15    16 ar  
    35    16    17 ar  
    36    16    48 1   
    37    17    18 ar  
    38    17    49 1   
    39    18    50 1   
    40    19    20 1   
    41    19    29 1   
    42    19    51 1   
    43    19    52 1   
    44    20    21 1   
    45    20    24 1   
    46    20    35 1   
    47    21    22 1   
    48    21    53 1   
    49    21    54 1   
    50    22    23 1   
    51    22    24 1   
    52    22    55 1   
    53    23    30 1   
    54    23    56 1   
    55    23    57 1   
    56    24    58 1   
    57    24    59 1   
    58    25    29 1   
    59    25    35 1   
    60    25    36 2   
    61    27    60 1   
    62    28    37 1   
    63    28    61 1   
    64    30    62 1   
    65    30    63 1   
    66    33    37 2   
    67    34    37 2   
@<TRIPOS>SUBSTRUCTURE
     1 YUQ         1 TEMP              0 ****  ****    0 ROOT
