@<TRIPOS>MOLECULE
YUS
   46    48     1     0     0
SMALL
abcg2


@<TRIPOS>ATOM
      1 O1         161.7370   162.9610   170.2140 os         1 YUS      -0.318100
      2 C1         161.9740   166.8310   166.1830 ce         1 YUS       0.401800
      3 C2         161.9110   165.8160   167.2260 ca         1 YUS      -0.135900
      4 N1         162.3160   168.0250   166.4540 n2         1 YUS      -0.448300
      5 C7         162.1000   165.1670   169.5480 ca         1 YUS       0.107100
      6 C6         161.4360   161.6100   169.9280 c3         1 YUS       0.144900
      7 C5         161.7700   163.8350   169.1970 ca         1 YUS       0.127100
      8 C4         161.5120   163.5270   167.8720 ca         1 YUS      -0.181000
      9 C3         161.5800   164.5140   166.8920 ca         1 YUS      -0.088000
     10 C8         162.6570   166.6950   171.2640 c3         1 YUS       0.141900
     11 C9         162.1710   166.1340   168.5680 ca         1 YUS      -0.138000
     12 C10        162.9910   170.5700   167.1480 c3         1 YUS      -0.100100
     13 C11        161.8180   170.5190   168.0980 ca         1 YUS      -0.043300
     14 C12        162.0480   170.4020   169.5020 ca         1 YUS      -0.029000
     15 C13        163.3460   170.3200   170.0640 ca         1 YUS      -0.104000
     16 C14        163.5290   170.2120   171.4160 ca         1 YUS      -0.113000
     17 N          162.3420   168.9330   165.4640 ns         1 YUS      -0.275900
     18 C          162.6490   170.2330   165.7150 c          1 YUS       0.627100
     19 O          162.6520   171.0550   164.8170 o          1 YUS      -0.582100
     20 C15        162.4240   170.1800   172.2880 ca         1 YUS      -0.114000
     21 C16        161.1570   170.2630   171.7800 ca         1 YUS      -0.099000
     22 C17        160.9350   170.3780   170.3880 ca         1 YUS      -0.037000
     23 C18        159.6240   170.4790   169.8680 ca         1 YUS      -0.101000
     24 C19        159.4290   170.6090   168.5240 ca         1 YUS      -0.100000
     25 C20        160.5290   170.6340   167.6440 ca         1 YUS      -0.103000
     26 H1         161.7090   166.5160   165.1700 h4         1 YUS      -0.013200
     27 H2         161.4720   161.0800   170.8760 h1         1 YUS       0.041033
     28 H3         160.4370   161.4960   169.4990 h1         1 YUS       0.041033
     29 H4         162.1650   161.1650   169.2460 h1         1 YUS       0.041033
     30 H5         161.2550   162.5180   167.5800 ha         1 YUS       0.120000
     31 H6         161.3740   164.2510   165.8620 ha         1 YUS       0.112000
     32 H7         162.7930   166.6570   172.3420 h1         1 YUS       0.043700
     33 H8         163.5840   167.0430   170.8030 h1         1 YUS       0.043700
     34 H9         161.8630   167.4110   171.0360 h1         1 YUS       0.043700
     35 H10        162.4220   167.1550   168.8210 ha         1 YUS       0.141000
     36 H11        163.7740   169.8880   167.4800 hc         1 YUS       0.078700
     37 H12        163.4230   171.5730   167.1480 hc         1 YUS       0.078700
     38 H13        164.2170   170.3510   169.4240 ha         1 YUS       0.113000
     39 H14        164.5320   170.1540   171.8190 ha         1 YUS       0.113000
     40 H15        162.0900   168.6710   164.5150 hn         1 YUS       0.309500
     41 H16        162.5810   170.0940   173.3550 ha         1 YUS       0.114000
     42 H17        160.2990   170.2440   172.4420 ha         1 YUS       0.114000
     43 H18        158.7840   170.4570   170.5520 ha         1 YUS       0.115000
     44 H19        158.4280   170.6930   168.1210 ha         1 YUS       0.115000
     45 H20        160.3270   170.7440   166.5850 ha         1 YUS       0.116000
     46 O2         162.3230   165.3830   170.8560 os         1 YUS      -0.323100
@<TRIPOS>BOND
     1     1     6 1   
     2     1     7 1   
     3     2     3 1   
     4     2     4 2   
     5     2    26 1   
     6     3     9 ar  
     7     3    11 ar  
     8     4    17 1   
     9     5     7 ar  
    10     5    11 ar  
    11     5    46 1   
    12     6    27 1   
    13     6    28 1   
    14     6    29 1   
    15     7     8 ar  
    16     8     9 ar  
    17     8    30 1   
    18     9    31 1   
    19    10    32 1   
    20    10    33 1   
    21    10    34 1   
    22    10    46 1   
    23    11    35 1   
    24    12    13 1   
    25    12    18 1   
    26    12    36 1   
    27    12    37 1   
    28    13    14 ar  
    29    13    25 ar  
    30    14    15 ar  
    31    14    22 ar  
    32    15    16 ar  
    33    15    38 1   
    34    16    20 ar  
    35    16    39 1   
    36    17    18 1   
    37    17    40 1   
    38    18    19 2   
    39    20    21 ar  
    40    20    41 1   
    41    21    22 ar  
    42    21    42 1   
    43    22    23 ar  
    44    23    24 ar  
    45    23    43 1   
    46    24    25 ar  
    47    24    44 1   
    48    25    45 1   
@<TRIPOS>SUBSTRUCTURE
     1 YUS         1 TEMP              0 ****  ****    0 ROOT
