@<TRIPOS>MOLECULE
YUS
   46    48     1     0     0
SMALL
No Charge or Current Charge


@<TRIPOS>ATOM
      1 O1         161.8610   164.8090   171.1650 os         1 YUS      -0.318100
      2 C1         162.5660   167.2090   166.0270 ce         1 YUS       0.401800
      3 C2         162.4260   166.5350   167.3550 ca         1 YUS      -0.135900
      4 N1         163.5160   168.0630   165.7900 n2         1 YUS      -0.448300
      5 C7         163.2340   166.0510   169.6240 ca         1 YUS       0.107100
      6 C6         160.6350   164.1760   171.5690 c3         1 YUS       0.144900
      7 C5         162.0300   165.3630   169.9070 ca         1 YUS       0.127100
      8 C4         161.0340   165.2650   168.9100 ca         1 YUS      -0.181000
      9 C3         161.2320   165.8500   167.6500 ca         1 YUS      -0.088000
     10 C8         165.4090   166.8950   170.4580 c3         1 YUS       0.141900
     11 C9         163.4240   166.6350   168.3500 ca         1 YUS      -0.138000
     12 C10        162.6390   170.3710   167.3540 c3         1 YUS      -0.100100
     13 C11        161.3510   169.7230   167.9050 ca         1 YUS      -0.043300
     14 C12        161.2770   169.2620   169.2510 ca         1 YUS      -0.029000
     15 C13        162.3480   169.4360   170.1640 ca         1 YUS      -0.104000
     16 C14        162.2580   168.9480   171.4790 ca         1 YUS      -0.113000
     17 N          163.1990   169.2580   165.1610 ns         1 YUS      -0.275900
     18 C          162.7290   170.3990   165.8120 c          1 YUS       0.627100
     19 O          162.3540   171.3680   165.1640 o          1 YUS      -0.582100
     20 C15        161.1000   168.2850   171.9090 ca         1 YUS      -0.114000
     21 C16        160.0240   168.1180   171.0250 ca         1 YUS      -0.099000
     22 C17        160.1050   168.6050   169.7060 ca         1 YUS      -0.037000
     23 C18        159.0100   168.4280   168.8450 ca         1 YUS      -0.101000
     24 C19        159.0670   168.9090   167.5320 ca         1 YUS      -0.100000
     25 C20        160.2240   169.5510   167.0660 ca         1 YUS      -0.103000
     26 H1         161.7210   167.1110   165.3410 h4         1 YUS      -0.013200
     27 H2         160.7110   163.8290   172.6080 h1         1 YUS       0.041033
     28 H3         159.7950   164.8780   171.5060 h1         1 YUS       0.041033
     29 H4         160.4180   163.3060   170.9370 h1         1 YUS       0.041033
     30 H5         160.0970   164.7490   169.0970 ha         1 YUS       0.120000
     31 H6         160.4450   165.7820   166.9010 ha         1 YUS       0.112000
     32 H7         166.0100   166.8470   171.3740 h1         1 YUS       0.043700
     33 H8         166.0120   166.4930   169.6340 h1         1 YUS       0.043700
     34 H9         165.1870   167.9500   170.2510 h1         1 YUS       0.043700
     35 H10        164.3380   167.1760   168.1240 ha         1 YUS       0.141000
     36 H11        163.4890   169.7830   167.7120 hc         1 YUS       0.078700
     37 H12        162.7140   171.3980   167.7260 hc         1 YUS       0.078700
     38 H13        163.2590   169.9510   169.8790 ha         1 YUS       0.113000
     39 H14        163.0900   169.0830   172.1650 ha         1 YUS       0.113000
     40 H15        163.2420   169.3380   164.1490 hn         1 YUS       0.309500
     41 H16        161.0350   167.9030   172.9250 ha         1 YUS       0.114000
     42 H17        159.1260   167.6070   171.3660 ha         1 YUS       0.114000
     43 H18        158.1120   167.9240   169.1930 ha         1 YUS       0.115000
     44 H19        158.2150   168.7780   166.8690 ha         1 YUS       0.115000
     45 H20        160.2270   169.9050   166.0390 ha         1 YUS       0.116000
     46 O2         164.1950   166.1410   170.6200 os         1 YUS      -0.323100
@<TRIPOS>BOND
     1     1     6 1   
     2     1     7 1   
     3     2     3 1   
     4     2     4 2   
     5     2    26 1   
     6     3     9 ar  
     7     3    11 ar  
     8     4    17 1   
     9     5     7 ar  
    10     5    11 ar  
    11     5    46 1   
    12     6    27 1   
    13     6    28 1   
    14     6    29 1   
    15     7     8 ar  
    16     8     9 ar  
    17     8    30 1   
    18     9    31 1   
    19    10    32 1   
    20    10    33 1   
    21    10    34 1   
    22    10    46 1   
    23    11    35 1   
    24    12    13 1   
    25    12    18 1   
    26    12    36 1   
    27    12    37 1   
    28    13    14 ar  
    29    13    25 ar  
    30    14    15 ar  
    31    14    22 ar  
    32    15    16 ar  
    33    15    38 1   
    34    16    20 ar  
    35    16    39 1   
    36    17    18 1   
    37    17    40 1   
    38    18    19 2   
    39    20    21 ar  
    40    20    41 1   
    41    21    22 ar  
    42    21    42 1   
    43    22    23 ar  
    44    23    24 ar  
    45    23    43 1   
    46    24    25 ar  
    47    24    44 1   
    48    25    45 1   
@<TRIPOS>SUBSTRUCTURE
     1 YUS         1 TEMP              0 ****  ****    0 ROOT
