@<TRIPOS>MOLECULE
YUU
   60    64     1     0     0
SMALL
No Charge or Current Charge


@<TRIPOS>ATOM
      1 C19        -22.3360   -12.3760    12.1330 ca         1 YUU      -0.056200
      2 C17        -21.0230   -14.1750    11.2020 ca         1 YUU      -0.056000
      3 C18        -21.6870   -12.9440    11.0690 ca         1 YUU      -0.091800
      4 C16        -21.0910   -14.8350    12.4440 ca         1 YUU      -0.176000
      5 C15        -21.7810   -14.2570    13.5310 ca         1 YUU      -0.109000
      6 C14        -22.4060   -12.9910    13.4000 ca         1 YUU      -0.139300
      7 C10        -27.9040   -14.2700    14.2720 cy         1 YUU      -0.077900
      8 C12        -25.4320   -11.5830    13.9360 c          1 YUU       0.689100
      9 C21        -22.5950   -10.8920    10.3810 cc         1 YUU      -0.069300
     10 C22        -23.2100    -9.7600     9.6070 c          1 YUU       0.726200
     11 C01        -22.5710   -12.6710    15.9600 c3         1 YUU      -0.093100
     12 C02        -23.1350   -12.3080    14.5670 c3         1 YUU       0.189000
     13 C04        -25.2600   -13.8180    14.7410 c5         1 YUU       0.087000
     14 C05        -26.7340   -13.3100    14.6870 cy         1 YUU       0.138000
     15 C06        -27.5360   -13.1410    16.0280 cy         1 YUU      -0.077900
     16 C07        -28.8320   -13.4040    15.1900 cy         1 YUU      -0.080700
     17 C08        -30.0260   -14.0770    15.8840 c3         1 YUU       0.160800
     18 C25        -21.8000   -11.9880     9.9710 cd         1 YUU      -0.084400
     19 C26        -21.1390   -12.0870     8.6780 cd         1 YUU      -0.087800
     20 C27        -20.8110   -11.0300     7.8730 cc         1 YUU      -0.127000
     21 C30        -20.6510   -10.6240     4.5480 c3         1 YUU       0.122800
     22 C33        -20.6210   -13.2500     8.0600 cd         1 YUU       0.231900
     23 N03        -24.5920   -12.5310    14.4930 n          1 YUU      -0.441800
     24 N09        -31.1210   -14.4940    14.9910 n8         1 YUU      -0.994200
     25 N20        -22.8590   -11.1580    11.7420 na         1 YUU      -0.192700
     26 N28        -20.1490   -11.6220     6.8010 na         1 YUU       0.106800
     27 N31        -20.0960    -9.9000     3.3730 n8         1 YUU      -1.007200
     28 N32        -20.0260   -12.9940     6.9090 nc         1 YUU      -0.572800
     29 O11        -26.6850   -12.0940    13.9240 os         1 YUU      -0.405100
     30 O13        -25.1070   -10.4870    13.5060 o          1 YUU      -0.528000
     31 O23        -23.7740    -8.8920    10.2600 o          1 YUU      -0.705500
     32 O24        -23.2660    -9.7740     8.3870 o          1 YUU      -0.705500
     33 H171       -20.4570   -14.6220    10.3950 ha         1 YUU       0.107000
     34 H161       -20.5980   -15.7960    12.5690 ha         1 YUU       0.090000
     35 H151       -21.8130   -14.7990    14.4710 ha         1 YUU       0.086000
     36 H102       -28.1580   -14.2780    13.2070 hc         1 YUU       0.063700
     37 H101       -27.7740   -15.3070    14.6030 hc         1 YUU       0.063700
     38 H011       -23.0450   -12.0530    16.7310 hc         1 YUU       0.036033
     39 H013       -22.7530   -13.7210    16.2150 hc         1 YUU       0.036033
     40 H012       -21.4910   -12.4870    15.9960 hc         1 YUU       0.036033
     41 H021       -22.9490   -11.2300    14.4670 h1         1 YUU       0.083700
     42 H041       -24.9830   -14.2530    15.7090 h1         1 YUU       0.061200
     43 H042       -25.0220   -14.5420    13.9500 h1         1 YUU       0.061200
     44 H061       -27.3180   -13.9060    16.7830 hc         1 YUU       0.063700
     45 H062       -27.4650   -12.1580    16.5050 hc         1 YUU       0.063700
     46 H071       -29.2070   -12.5000    14.6930 hc         1 YUU       0.068700
     47 H082       -29.6610   -14.9650    16.4200 h1         1 YUU       0.024700
     48 H081       -30.4310   -13.3750    16.6260 h1         1 YUU       0.024700
     49 H271       -20.9250    -9.9600     7.9700 h4         1 YUU       0.176000
     50 H292       -18.7830   -11.5210     5.2050 h1         1 YUU       0.056700
     51 H291       -19.1530    -9.9710     5.9820 h1         1 YUU       0.056700
     52 H301       -21.0790   -11.5770     4.2040 h1         1 YUU       0.051200
     53 H302       -21.4640   -10.0260     4.9850 h1         1 YUU       0.051200
     54 H331       -20.6880   -14.2790     8.3790 h4         1 YUU       0.022100
     55 H091       -31.8920   -14.8670    15.5590 hn         1 YUU       0.390000
     56 H1         -31.5270   -13.6600    14.5500 hn         1 YUU       0.390000
     57 H201       -23.4740   -10.5840    12.3150 hn         1 YUU       0.388000
     58 H2         -20.8540    -9.7130     2.7030 hn         1 YUU       0.390000
     59 H311       -19.7970    -8.9600     3.6630 hn         1 YUU       0.390000
     60 C29        -19.5900   -10.9150     5.6350 c3         1 YUU       0.097600
@<TRIPOS>BOND
     1     1     3 ar  
     2     1     6 ar  
     3     1    25 1   
     4     2     3 ar  
     5     2     4 ar  
     6     2    33 1   
     7     3    18 1   
     8     4     5 ar  
     9     4    34 1   
    10     5     6 ar  
    11     5    35 1   
    12     6    12 1   
    13     7    14 1   
    14     7    16 1   
    15     7    36 1   
    16     7    37 1   
    17     8    23 1   
    18     8    29 1   
    19     8    30 2   
    20     9    10 1   
    21     9    18 2   
    22     9    25 1   
    23    10    31 1   
    24    10    32 1   
    25    11    12 1   
    26    11    38 1   
    27    11    39 1   
    28    11    40 1   
    29    12    23 1   
    30    12    41 1   
    31    13    14 1   
    32    13    23 1   
    33    13    42 1   
    34    13    43 1   
    35    14    15 1   
    36    14    29 1   
    37    15    16 1   
    38    15    44 1   
    39    15    45 1   
    40    16    17 1   
    41    16    46 1   
    42    17    24 1   
    43    17    47 1   
    44    17    48 1   
    45    18    19 1   
    46    19    20 2   
    47    19    22 1   
    48    20    26 1   
    49    20    49 1   
    50    21    27 1   
    51    21    52 1   
    52    21    53 1   
    53    21    60 1   
    54    22    28 2   
    55    22    54 1   
    56    24    55 1   
    57    24    56 1   
    58    25    57 1   
    59    26    28 1   
    60    26    60 1   
    61    27    58 1   
    62    27    59 1   
    63    50    60 1   
    64    51    60 1   
@<TRIPOS>SUBSTRUCTURE
     1 YUU         1 TEMP              0 ****  ****    0 ROOT
