@<TRIPOS>MOLECULE
YUU
   60    64     1     0     0
SMALL
abcg2


@<TRIPOS>ATOM
      1 C19        -22.3630   -12.1910    12.3120 ca         1 YUU      -0.056200
      2 C17        -21.2220   -14.0280    11.2210 ca         1 YUU      -0.056000
      3 C18        -21.7710   -12.7410    11.1530 ca         1 YUU      -0.091800
      4 C16        -21.2910   -14.7190    12.4120 ca         1 YUU      -0.176000
      5 C15        -21.8900   -14.1500    13.5490 ca         1 YUU      -0.109000
      6 C14        -22.4290   -12.8780    13.5330 ca         1 YUU      -0.139300
      7 C10        -27.8210   -13.8060    13.9150 cy         1 YUU      -0.077900
      8 C12        -25.3170   -11.2850    14.2590 c          1 YUU       0.689100
      9 C21        -22.4800   -10.6550    10.6830 cc         1 YUU      -0.069300
     10 C22        -22.8930    -9.3040    10.1500 c          1 YUU       0.726200
     11 C01        -22.6120   -12.7800    16.0770 c3         1 YUU      -0.093100
     12 C02        -23.0830   -12.2320    14.7370 c3         1 YUU       0.189000
     13 C04        -25.2580   -13.5600    14.5870 c5         1 YUU       0.087000
     14 C05        -26.6920   -13.0570    14.6210 cy         1 YUU       0.138000
     15 C06        -27.5090   -13.1050    15.9230 cy         1 YUU      -0.077900
     16 C07        -28.7590   -13.4400    15.0830 cy         1 YUU      -0.080700
     17 C08        -29.6900   -14.5110    15.6010 c3         1 YUU       0.160800
     18 C25        -21.8550   -11.7480    10.1170 cd         1 YUU      -0.084400
     19 C26        -21.3620   -11.9520     8.7610 cd         1 YUU      -0.087800
     20 C27        -20.7010   -11.0820     7.9160 cc         1 YUU      -0.127000
     21 C30        -20.7810   -10.9900     4.4820 c3         1 YUU       0.122800
     22 C33        -21.4130   -13.1480     8.0120 cd         1 YUU       0.231900
     23 N03        -24.5310   -12.3120    14.6360 n          1 YUU      -0.441800
     24 N09        -30.6560   -14.8860    14.5800 n8         1 YUU      -0.994200
     25 N20        -22.7740   -10.9390    11.9890 na         1 YUU      -0.192700
     26 N28        -20.4070   -11.7590     6.7940 na         1 YUU       0.106800
     27 N31        -20.0880   -10.4320     3.3340 n8         1 YUU      -1.007200
     28 N32        -20.8420   -13.0160     6.8290 nc         1 YUU      -0.572800
     29 O11        -26.5830   -11.7060    14.1420 os         1 YUU      -0.405100
     30 O13        -24.9980   -10.1350    14.0410 o          1 YUU      -0.528000
     31 O23        -23.5790    -8.6160    10.9330 o          1 YUU      -0.705500
     32 O24        -22.5200    -9.0050     9.0040 o          1 YUU      -0.705500
     33 H171       -20.7410   -14.4750    10.3600 ha         1 YUU       0.107000
     34 H161       -20.8720   -15.7140    12.4830 ha         1 YUU       0.090000
     35 H151       -21.9110   -14.7320    14.4620 ha         1 YUU       0.086000
     36 H102       -28.0740   -13.4770    12.9070 hc         1 YUU       0.063700
     37 H101       -27.6130   -14.8790    13.8910 hc         1 YUU       0.063700
     38 H011       -23.0800   -12.2200    16.8860 hc         1 YUU       0.036033
     39 H013       -22.8550   -13.8330    16.2150 hc         1 YUU       0.036033
     40 H012       -21.5320   -12.6720    16.1690 hc         1 YUU       0.036033
     41 H021       -22.8390   -11.1670    14.7270 h1         1 YUU       0.083700
     42 H041       -25.0380   -14.2050    15.4380 h1         1 YUU       0.061200
     43 H042       -25.0390   -14.1170    13.6690 h1         1 YUU       0.061200
     44 H061       -27.2030   -13.9520    16.5420 hc         1 YUU       0.063700
     45 H062       -27.5170   -12.2050    16.5380 hc         1 YUU       0.063700
     46 H071       -29.3240   -12.5310    14.8540 hc         1 YUU       0.068700
     47 H082       -29.0980   -15.3960    15.8550 h1         1 YUU       0.024700
     48 H081       -30.1460   -14.1640    16.5400 h1         1 YUU       0.024700
     49 H271       -20.4260   -10.0490     8.0420 h4         1 YUU       0.176000
     50 H292       -19.0120   -11.9390     5.2710 h1         1 YUU       0.056700
     51 H291       -19.2810   -10.3080     5.8770 h1         1 YUU       0.056700
     52 H301       -21.2300   -11.9410     4.1910 h1         1 YUU       0.051200
     53 H302       -21.5950   -10.3610     4.8680 h1         1 YUU       0.051200
     54 H331       -21.8580   -14.0910     8.2960 h4         1 YUU       0.022100
     55 H091       -31.2350   -15.6420    14.9210 hn         1 YUU       0.390000
     56 H1         -31.2870   -14.1110    14.4120 hn         1 YUU       0.390000
     57 H201       -23.2970   -10.3000    12.5720 hn         1 YUU       0.388000
     58 H2         -20.7150   -10.4030     2.5410 hn         1 YUU       0.390000
     59 H311       -19.8370    -9.4700     3.5230 hn         1 YUU       0.390000
     60 C29        -19.7790   -11.2390     5.6020 c3         1 YUU       0.097600
@<TRIPOS>BOND
     1     1     3 ar  
     2     1     6 ar  
     3     1    25 1   
     4     2     3 ar  
     5     2     4 ar  
     6     2    33 1   
     7     3    18 1   
     8     4     5 ar  
     9     4    34 1   
    10     5     6 ar  
    11     5    35 1   
    12     6    12 1   
    13     7    14 1   
    14     7    16 1   
    15     7    36 1   
    16     7    37 1   
    17     8    23 1   
    18     8    29 1   
    19     8    30 2   
    20     9    10 1   
    21     9    18 2   
    22     9    25 1   
    23    10    31 1   
    24    10    32 1   
    25    11    12 1   
    26    11    38 1   
    27    11    39 1   
    28    11    40 1   
    29    12    23 1   
    30    12    41 1   
    31    13    14 1   
    32    13    23 1   
    33    13    42 1   
    34    13    43 1   
    35    14    15 1   
    36    14    29 1   
    37    15    16 1   
    38    15    44 1   
    39    15    45 1   
    40    16    17 1   
    41    16    46 1   
    42    17    24 1   
    43    17    47 1   
    44    17    48 1   
    45    18    19 1   
    46    19    20 2   
    47    19    22 1   
    48    20    26 1   
    49    20    49 1   
    50    21    27 1   
    51    21    52 1   
    52    21    53 1   
    53    21    60 1   
    54    22    28 2   
    55    22    54 1   
    56    24    55 1   
    57    24    56 1   
    58    25    57 1   
    59    26    28 1   
    60    26    60 1   
    61    27    58 1   
    62    27    59 1   
    63    50    60 1   
    64    51    60 1   
@<TRIPOS>SUBSTRUCTURE
     1 YUU         1 TEMP              0 ****  ****    0 ROOT
