@<TRIPOS>MOLECULE
YUV
   72    77     1     0     0
SMALL
bcc


@<TRIPOS>ATOM
      1 C1         146.3210   173.8470   180.5330 c6         1 YUV      -0.098700
      2 C2         147.3890   174.7950   181.0710 c6         1 YUV      -0.069400
      3 O1         146.3090   177.2830   195.0170 oh         1 YUV      -0.598800
      4 C          146.9300   172.6480   179.8220 c3         1 YUV      -0.085100
      5 O          146.5930   174.6930   183.9440 os         1 YUV      -0.418600
      6 O2         144.8830   174.4760   182.4070 os         1 YUV      -0.426600
      7 C3         146.7580   175.9050   181.9020 c6         1 YUV      -0.082400
      8 C4         145.8250   175.3560   182.9710 c5         1 YUV       0.338600
      9 C5         145.0540   176.4360   183.7540 c5         1 YUV      -0.064700
     10 C6         144.9110   175.8260   185.1550 c5         1 YUV      -0.086700
     11 C7         145.7880   174.5500   185.1020 c5         1 YUV       0.138100
     12 C8         146.5970   174.4960   186.4010 c5         1 YUV      -0.072400
     13 C9         145.8000   175.4290   187.3090 c5         1 YUV      -0.064700
     14 C10        145.4260   176.6020   186.3900 c5         1 YUV      -0.035000
     15 C11        144.3710   177.4300   187.1180 c6         1 YUV      -0.062400
     16 C12        144.8940   177.9140   188.4720 c6         1 YUV      -0.070400
     17 C13        145.4090   176.7830   189.3770 c6         1 YUV      -0.045700
     18 C14        146.3810   175.8350   188.6530 c6         1 YUV      -0.042700
     19 C15        146.6400   174.6120   189.5240 c6         1 YUV      -0.038200
     20 C16        146.9110   174.9770   190.9460 c2         1 YUV      -0.164200
     21 C17        146.6610   176.1700   191.4830 c2         1 YUV      -0.111400
     22 C18        146.0020   177.3040   190.7130 c6         1 YUV       0.003200
     23 C19        144.8560   177.8600   191.5840 c6         1 YUV      -0.062400
     24 C20        145.2670   178.2070   193.0090 c6         1 YUV      -0.111400
     25 C21        145.8510   176.9920   193.7120 c6         1 YUV       0.149100
     26 C22        147.0290   176.4510   192.9170 c6         1 YUV      -0.035200
     27 C23        147.0410   178.4120   190.4670 c3         1 YUV      -0.080100
     28 C24        146.6370   177.4760   186.0450 c3         1 YUV      -0.082100
     29 C25        143.7450   176.8910   183.1280 c3         1 YUV      -0.072100
     30 C26        145.4330   173.3910   181.6810 c6         1 YUV       0.142400
     31 H1         145.6960   174.3980   179.8190 hc         1 YUV       0.053700
     32 H2         148.1020   174.2290   181.6790 hc         1 YUV       0.047700
     33 H3         147.9610   175.2240   180.2450 hc         1 YUV       0.047700
     34 H5         146.1620   171.9830   179.4240 hc         1 YUV       0.034367
     35 H6         147.5560   172.9650   178.9870 hc         1 YUV       0.034367
     36 H7         147.5560   172.0660   180.5020 hc         1 YUV       0.034367
     37 H8         147.5230   176.5250   182.3760 hc         1 YUV       0.055200
     38 H9         146.1770   176.5660   181.2520 hc         1 YUV       0.055200
     39 H10        145.7140   177.3050   183.7900 hc         1 YUV       0.061700
     40 H11        143.8680   175.5490   185.3390 hc         1 YUV       0.063700
     41 H12        145.1650   173.6530   185.0150 h1         1 YUV       0.050700
     42 H13        146.6810   173.4820   186.7960 hc         1 YUV       0.055200
     43 H14        147.6140   174.8690   186.2480 hc         1 YUV       0.055200
     44 H15        144.8520   174.9130   187.5330 hc         1 YUV       0.042700
     45 H16        144.0590   178.2900   186.5170 hc         1 YUV       0.040200
     46 H17        143.4770   176.8140   187.2670 hc         1 YUV       0.040200
     47 H18        145.6860   178.6450   188.3000 hc         1 YUV       0.040200
     48 H19        144.0960   178.4590   188.9830 hc         1 YUV       0.040200
     49 H20        144.5370   176.1670   189.6460 hc         1 YUV       0.045700
     50 H21        147.3400   176.3430   188.4940 hc         1 YUV       0.056700
     51 H22        145.7780   173.9350   189.4730 hc         1 YUV       0.047700
     52 H23        147.4830   174.0390   189.1270 hc         1 YUV       0.047700
     53 H24        147.3530   174.2070   191.5720 ha         1 YUV       0.121000
     54 H25        144.4300   178.7460   191.1080 hc         1 YUV       0.041200
     55 H26        144.0510   177.1170   191.6220 hc         1 YUV       0.041200
     56 H27        146.0010   179.0190   193.0190 hc         1 YUV       0.044700
     57 H28        144.3930   178.5710   193.5590 hc         1 YUV       0.044700
     58 H29        145.0730   176.2120   193.7460 h1         1 YUV       0.030700
     59 H30        147.4110   175.5400   193.3830 hc         1 YUV       0.057700
     60 H31        147.8390   177.1900   192.9630 hc         1 YUV       0.057700
     61 H32        147.6040   178.6540   191.3680 hc         1 YUV       0.034700
     62 H33        147.7680   178.1200   189.7070 hc         1 YUV       0.034700
     63 H34        146.5660   179.3370   190.1380 hc         1 YUV       0.034700
     64 H35        147.1770   177.8090   186.9310 hc         1 YUV       0.035700
     65 H36        147.3600   176.9650   185.4080 hc         1 YUV       0.035700
     66 H37        146.3230   178.3770   185.5150 hc         1 YUV       0.035700
     67 H38        143.3330   177.7250   183.6980 hc         1 YUV       0.037367
     68 H39        143.8870   177.2380   182.1030 hc         1 YUV       0.037367
     69 H40        142.9960   176.0990   183.1150 hc         1 YUV       0.037367
     70 H41        144.5830   172.8160   181.3060 h1         1 YUV       0.047200
     71 H42        146.0040   172.7260   182.3440 h1         1 YUV       0.047200
     72 H4         145.5710   177.6380   195.5230 ho         1 YUV       0.402000
@<TRIPOS>BOND
     1     1     2 1   
     2     1     4 1   
     3     1    30 1   
     4     1    31 1   
     5     2     7 1   
     6     2    32 1   
     7     2    33 1   
     8     3    25 1   
     9     3    72 1   
    10     4    34 1   
    11     4    35 1   
    12     4    36 1   
    13     5     8 1   
    14     5    11 1   
    15     6     8 1   
    16     6    30 1   
    17     7     8 1   
    18     7    37 1   
    19     7    38 1   
    20     8     9 1   
    21     9    10 1   
    22     9    29 1   
    23     9    39 1   
    24    10    11 1   
    25    10    14 1   
    26    10    40 1   
    27    11    12 1   
    28    11    41 1   
    29    12    13 1   
    30    12    42 1   
    31    12    43 1   
    32    13    14 1   
    33    13    18 1   
    34    13    44 1   
    35    14    15 1   
    36    14    28 1   
    37    15    16 1   
    38    15    45 1   
    39    15    46 1   
    40    16    17 1   
    41    16    47 1   
    42    16    48 1   
    43    17    18 1   
    44    17    22 1   
    45    17    49 1   
    46    18    19 1   
    47    18    50 1   
    48    19    20 1   
    49    19    51 1   
    50    19    52 1   
    51    20    21 2   
    52    20    53 1   
    53    21    22 1   
    54    21    26 1   
    55    22    23 1   
    56    22    27 1   
    57    23    24 1   
    58    23    54 1   
    59    23    55 1   
    60    24    25 1   
    61    24    56 1   
    62    24    57 1   
    63    25    26 1   
    64    25    58 1   
    65    26    59 1   
    66    26    60 1   
    67    27    61 1   
    68    27    62 1   
    69    27    63 1   
    70    28    64 1   
    71    28    65 1   
    72    28    66 1   
    73    29    67 1   
    74    29    68 1   
    75    29    69 1   
    76    30    70 1   
    77    30    71 1   
@<TRIPOS>SUBSTRUCTURE
     1 YUV         1 TEMP              0 ****  ****    0 ROOT
