@<TRIPOS>MOLECULE
YUV
   72    77     1     0     0
SMALL
No Charge or Current Charge


@<TRIPOS>ATOM
      1 C1         146.2820   173.9550   180.3900 c6         1 YUV      -0.098700
      2 C2         147.3260   174.9410   180.9540 c6         1 YUV      -0.069400
      3 O1         145.9610   177.4320   195.1620 oh         1 YUV      -0.661000
      4 C          146.9360   172.9040   179.4540 c3         1 YUV      -0.085100
      5 O          146.6760   174.7200   183.9980 os         1 YUV      -0.465000
      6 O2         144.9540   174.2220   182.4960 os         1 YUV      -0.473000
      7 C3         146.6210   175.9690   181.8580 c6         1 YUV      -0.082400
      8 C4         145.8110   175.2900   182.9950 c5         1 YUV       0.385000
      9 C5         144.9060   176.2820   183.8200 c5         1 YUV      -0.064700
     10 C6         144.8720   175.6140   185.2440 c5         1 YUV      -0.086700
     11 C7         145.8410   174.4020   185.1250 c5         1 YUV       0.161300
     12 C8         146.6750   174.3940   186.4490 c5         1 YUV      -0.072400
     13 C9         145.8340   175.3500   187.3520 c5         1 YUV      -0.064700
     14 C10        145.5210   176.5190   186.3690 c5         1 YUV      -0.035000
     15 C11        144.5110   177.4780   187.0600 c6         1 YUV      -0.062400
     16 C12        145.0600   177.9990   188.4190 c6         1 YUV      -0.070400
     17 C13        145.4770   176.8410   189.4040 c6         1 YUV      -0.045700
     18 C14        146.4300   175.8000   188.7190 c6         1 YUV      -0.042700
     19 C15        146.6440   174.5750   189.6460 c6         1 YUV      -0.038200
     20 C16        146.8380   174.9490   191.1040 c2         1 YUV      -0.214200
     21 C17        146.5810   176.1630   191.6250 c2         1 YUV      -0.111400
     22 C18        146.0640   177.3570   190.7860 c6         1 YUV       0.003200
     23 C19        144.9250   178.1050   191.5680 c6         1 YUV      -0.062400
     24 C20        145.2670   178.4170   193.0460 c6         1 YUV      -0.111400
     25 C21        145.6390   177.1250   193.8020 c6         1 YUV       0.172300
     26 C22        146.8350   176.4310   193.1140 c6         1 YUV      -0.035200
     27 C23        147.2860   178.3180   190.5750 c3         1 YUV      -0.080100
     28 C24        146.7970   177.3520   185.9540 c3         1 YUV      -0.082100
     29 C25        143.5080   176.5890   183.2280 c3         1 YUV      -0.072100
     30 C26        145.5000   173.2770   181.5440 c6         1 YUV       0.165600
     31 H1         145.5650   174.5140   179.7720 hc         1 YUV       0.053700
     32 H2         148.0920   174.4000   181.5270 hc         1 YUV       0.047700
     33 H3         147.8460   175.4580   180.1350 hc         1 YUV       0.047700
     34 H5         146.1830   172.2270   179.0320 hc         1 YUV       0.034367
     35 H6         147.4510   173.3870   178.6150 hc         1 YUV       0.034367
     36 H7         147.6710   172.2930   179.9910 hc         1 YUV       0.034367
     37 H8         147.3630   176.6510   182.2940 hc         1 YUV       0.055200
     38 H9         145.9490   176.5920   181.2540 hc         1 YUV       0.055200
     39 H10        145.3910   177.2590   183.8420 hc         1 YUV       0.061700
     40 H11        143.8660   175.2710   185.5150 hc         1 YUV       0.063700
     41 H12        145.3060   173.4580   184.9460 h1         1 YUV       0.050700
     42 H13        146.7430   173.3870   186.8740 hc         1 YUV       0.055200
     43 H14        147.7020   174.7470   186.3050 hc         1 YUV       0.055200
     44 H15        144.9010   174.8410   187.6320 hc         1 YUV       0.042700
     45 H16        144.2730   178.3220   186.3980 hc         1 YUV       0.040200
     46 H17        143.5620   176.9540   187.2380 hc         1 YUV       0.040200
     47 H18        145.9030   178.6710   188.2260 hc         1 YUV       0.040200
     48 H19        144.2830   178.6220   188.8790 hc         1 YUV       0.040200
     49 H20        144.5520   176.2930   189.6350 hc         1 YUV       0.045700
     50 H21        147.4100   176.2590   188.5450 hc         1 YUV       0.056700
     51 H22        145.7850   173.8930   189.5820 hc         1 YUV       0.047700
     52 H23        147.5150   174.0030   189.2980 hc         1 YUV       0.047700
     53 H24        147.2160   174.1460   191.7390 ha         1 YUV       0.171000
     54 H25        144.6720   179.0480   191.0660 hc         1 YUV       0.041200
     55 H26        144.0090   177.4990   191.5510 hc         1 YUV       0.041200
     56 H27        146.0880   179.1440   193.1030 hc         1 YUV       0.044700
     57 H28        144.4000   178.8920   193.5240 hc         1 YUV       0.044700
     58 H29        144.7780   176.4410   193.7700 h1         1 YUV       0.030700
     59 H30        147.0580   175.4930   193.6390 hc         1 YUV       0.057700
     60 H31        147.7330   177.0530   193.2250 hc         1 YUV       0.057700
     61 H32        147.7450   178.6160   191.5230 hc         1 YUV       0.034700
     62 H33        148.0790   177.8510   189.9810 hc         1 YUV       0.034700
     63 H34        146.9970   179.2480   190.0740 hc         1 YUV       0.034700
     64 H35        147.4000   177.6550   186.8150 hc         1 YUV       0.035700
     65 H36        147.4680   176.8070   185.2830 hc         1 YUV       0.035700
     66 H37        146.5200   178.2800   185.4410 hc         1 YUV       0.035700
     67 H38        142.9800   177.3280   183.8420 hc         1 YUV       0.037367
     68 H39        143.5890   176.9950   182.2130 hc         1 YUV       0.037367
     69 H40        142.8800   175.6910   183.1820 hc         1 YUV       0.037367
     70 H41        144.6790   172.6670   181.1400 h1         1 YUV       0.047200
     71 H42        146.1770   172.6010   182.0880 h1         1 YUV       0.047200
     72 H4         145.1590   177.8420   195.5540 ho         1 YUV       0.441000
@<TRIPOS>BOND
     1     1     2 1   
     2     1     4 1   
     3     1    30 1   
     4     1    31 1   
     5     2     7 1   
     6     2    32 1   
     7     2    33 1   
     8     3    25 1   
     9     3    72 1   
    10     4    34 1   
    11     4    35 1   
    12     4    36 1   
    13     5     8 1   
    14     5    11 1   
    15     6     8 1   
    16     6    30 1   
    17     7     8 1   
    18     7    37 1   
    19     7    38 1   
    20     8     9 1   
    21     9    10 1   
    22     9    29 1   
    23     9    39 1   
    24    10    11 1   
    25    10    14 1   
    26    10    40 1   
    27    11    12 1   
    28    11    41 1   
    29    12    13 1   
    30    12    42 1   
    31    12    43 1   
    32    13    14 1   
    33    13    18 1   
    34    13    44 1   
    35    14    15 1   
    36    14    28 1   
    37    15    16 1   
    38    15    45 1   
    39    15    46 1   
    40    16    17 1   
    41    16    47 1   
    42    16    48 1   
    43    17    18 1   
    44    17    22 1   
    45    17    49 1   
    46    18    19 1   
    47    18    50 1   
    48    19    20 1   
    49    19    51 1   
    50    19    52 1   
    51    20    21 2   
    52    20    53 1   
    53    21    22 1   
    54    21    26 1   
    55    22    23 1   
    56    22    27 1   
    57    23    24 1   
    58    23    54 1   
    59    23    55 1   
    60    24    25 1   
    61    24    56 1   
    62    24    57 1   
    63    25    26 1   
    64    25    58 1   
    65    26    59 1   
    66    26    60 1   
    67    27    61 1   
    68    27    62 1   
    69    27    63 1   
    70    28    64 1   
    71    28    65 1   
    72    28    66 1   
    73    29    67 1   
    74    29    68 1   
    75    29    69 1   
    76    30    70 1   
    77    30    71 1   
@<TRIPOS>SUBSTRUCTURE
     1 YUV         1 TEMP              0 ****  ****    0 ROOT
