@<TRIPOS>MOLECULE
YUX
   58    59     1     0     0
SMALL
abcg2


@<TRIPOS>ATOM
      1 C10        121.9320   117.3840   115.2290 ca         1 YUX      -0.121000
      2 C13        119.6700   118.2720   113.0050 c3         1 YUX      -0.074400
      3 C15        118.6970   119.6120   111.0800 c3         1 YUX      -0.072400
      4 C17        117.2700   118.7180   109.1450 c3         1 YUX      -0.075400
      5 C20        115.4720   118.0430   105.7400 c3         1 YUX      -0.075400
      6 C21        114.4180   117.0450   105.2840 c3         1 YUX      -0.088100
      7 C22        119.8110   116.5210   115.9150 ca         1 YUX      -0.121000
      8 C02        121.8920   115.1230   124.4520 c3         1 YUX       0.150800
      9 C03        122.2430   115.3720   122.9930 c3         1 YUX      -0.078400
     10 C05        121.8560   116.8830   121.0370 cc         1 YUX       0.489300
     11 C07        121.9140   117.0610   118.9660 cd         1 YUX       0.618500
     12 C08        121.4910   117.0220   117.5680 ca         1 YUX      -0.150500
     13 C09        122.3480   117.4330   116.5460 ca         1 YUX      -0.065500
     14 C11        120.6590   116.9260   114.8890 ca         1 YUX      -0.053300
     15 C12        120.2070   116.9120   113.4580 c3         1 YUX      -0.036100
     16 C14        119.2450   118.2680   111.5430 c3         1 YUX      -0.076400
     17 C16        118.3710   119.6740   109.5900 c3         1 YUX      -0.073400
     18 C18        116.9040   118.8750   107.6740 c3         1 YUX      -0.075400
     19 C19        115.8350   117.8940   107.2130 c3         1 YUX      -0.075400
     20 C23        120.2170   116.5650   117.2400 ca         1 YUX      -0.065500
     21 N01        122.5470   113.9180   124.9370 n8         1 YUX      -0.994200
     22 N06        121.1040   116.6970   120.0050 nd         1 YUX      -0.722000
     23 N24        123.0960   117.4480   119.3450 nc         1 YUX      -0.378300
     24 O25        123.0610   117.3320   120.7060 os         1 YUX      -0.087700
     25 H1         122.6100   117.7040   114.4460 ha         1 YUX       0.115500
     26 H2         120.4380   119.0360   113.1630 hc         1 YUX       0.043200
     27 H3         118.8220   118.5550   113.6360 hc         1 YUX       0.043200
     28 H4         119.4280   120.3930   111.3140 hc         1 YUX       0.038200
     29 H5         117.7970   119.8580   111.6560 hc         1 YUX       0.038200
     30 H6         116.3780   118.8790   109.7610 hc         1 YUX       0.037700
     31 H7         117.5780   117.6830   109.3240 hc         1 YUX       0.037700
     32 H8         116.3760   117.9260   105.1330 hc         1 YUX       0.036700
     33 H9         115.1160   119.0620   105.5570 hc         1 YUX       0.036700
     34 H10        114.1740   117.1710   104.2280 hc         1 YUX       0.031367
     35 H11        114.7600   116.0180   105.4230 hc         1 YUX       0.031367
     36 H12        113.4930   117.1610   105.8520 hc         1 YUX       0.031367
     37 H13        118.8180   116.1580   115.6760 ha         1 YUX       0.115500
     38 H14        122.2420   115.9690   125.0500 h1         1 YUX       0.028200
     39 H15        120.7970   115.1040   124.5560 h1         1 YUX       0.028200
     40 H16        121.9390   114.5110   122.3900 hc         1 YUX       0.061700
     41 H17        123.3270   115.4650   122.8950 hc         1 YUX       0.061700
     42 H18        121.8540   117.4990   123.0570 hc         1 YUX       0.074700
     43 H19        120.4690   116.5350   122.5580 hc         1 YUX       0.074700
     44 H20        123.3430   117.7890   116.7800 ha         1 YUX       0.132000
     45 H21        119.4310   116.1550   113.3210 hc         1 YUX       0.048200
     46 H22        121.0420   116.6260   112.8120 hc         1 YUX       0.048200
     47 H23        118.4960   117.4840   111.3920 hc         1 YUX       0.038200
     48 H24        120.1030   117.9920   110.9200 hc         1 YUX       0.038200
     49 H25        119.2800   119.4710   109.0120 hc         1 YUX       0.037700
     50 H26        118.0740   120.6970   109.3360 hc         1 YUX       0.037700
     51 H27        117.8040   118.7440   107.0620 hc         1 YUX       0.036700
     52 H28        116.5620   119.9000   107.4910 hc         1 YUX       0.036700
     53 H29        114.9330   118.0230   107.8220 hc         1 YUX       0.036700
     54 H30        116.1780   116.8700   107.3980 hc         1 YUX       0.036700
     55 H31        119.5420   116.2390   118.0200 ha         1 YUX       0.132000
     56 H32        122.3580   113.8060   125.9240 hn         1 YUX       0.395500
     57 H33        122.1350   113.1100   124.4870 hn         1 YUX       0.395500
     58 C04        121.5510   116.6320   122.4640 c3         1 YUX      -0.115700
@<TRIPOS>BOND
     1     1    13 ar  
     2     1    14 ar  
     3     1    25 1   
     4     2    15 1   
     5     2    16 1   
     6     2    26 1   
     7     2    27 1   
     8     3    16 1   
     9     3    17 1   
    10     3    28 1   
    11     3    29 1   
    12     4    17 1   
    13     4    18 1   
    14     4    30 1   
    15     4    31 1   
    16     5     6 1   
    17     5    19 1   
    18     5    32 1   
    19     5    33 1   
    20     6    34 1   
    21     6    35 1   
    22     6    36 1   
    23     7    14 ar  
    24     7    20 ar  
    25     7    37 1   
    26     8     9 1   
    27     8    21 1   
    28     8    38 1   
    29     8    39 1   
    30     9    40 1   
    31     9    41 1   
    32     9    58 1   
    33    10    22 2   
    34    10    24 1   
    35    10    58 1   
    36    11    12 1   
    37    11    22 1   
    38    11    23 2   
    39    12    13 ar  
    40    12    20 ar  
    41    13    44 1   
    42    14    15 1   
    43    15    45 1   
    44    15    46 1   
    45    16    47 1   
    46    16    48 1   
    47    17    49 1   
    48    17    50 1   
    49    18    19 1   
    50    18    51 1   
    51    18    52 1   
    52    19    53 1   
    53    19    54 1   
    54    20    55 1   
    55    21    56 1   
    56    21    57 1   
    57    23    24 1   
    58    42    58 1   
    59    43    58 1   
@<TRIPOS>SUBSTRUCTURE
     1 YUX         1 TEMP              0 ****  ****    0 ROOT
