@<TRIPOS>MOLECULE
YUX
   58    59     1     0     0
SMALL
No Charge or Current Charge


@<TRIPOS>ATOM
      1 C10        122.1740   117.5150   115.2340 ca         1 YUX      -0.121000
      2 C13        119.7970   118.3170   112.9710 c3         1 YUX      -0.074400
      3 C15        118.6750   119.6240   111.0550 c3         1 YUX      -0.072400
      4 C17        117.2120   118.6730   109.1240 c3         1 YUX      -0.075400
      5 C20        115.3060   117.9650   105.7290 c3         1 YUX      -0.075400
      6 C21        114.2260   116.9550   105.2960 c3         1 YUX      -0.088100
      7 C22        120.0180   116.6130   115.8820 ca         1 YUX      -0.121000
      8 C02        121.6940   115.0070   124.4910 c3         1 YUX       0.150800
      9 C03        122.0790   115.2850   123.0240 c3         1 YUX      -0.078400
     10 C05        122.0130   116.9640   121.1120 cc         1 YUX       0.489300
     11 C07        122.0930   117.1680   119.0270 cd         1 YUX       0.618500
     12 C08        121.6860   117.1260   117.6040 ca         1 YUX      -0.150500
     13 C09        122.5650   117.5570   116.5830 ca         1 YUX      -0.065500
     14 C11        120.9000   117.0420   114.8750 ca         1 YUX      -0.053300
     15 C12        120.4760   117.0030   113.4130 c3         1 YUX      -0.036100
     16 C14        119.3580   118.3060   111.4900 c3         1 YUX      -0.076400
     17 C16        118.2990   119.6860   109.5550 c3         1 YUX      -0.073400
     18 C18        116.8000   118.8250   107.6430 c3         1 YUX      -0.075400
     19 C19        115.7180   117.8130   107.2090 c3         1 YUX      -0.075400
     20 C23        120.4050   116.6530   117.2330 ca         1 YUX      -0.065500
     21 N01        122.1360   113.6680   124.9200 n8         1 YUX      -0.994200
     22 N06        121.2660   116.7580   120.0510 nd         1 YUX      -0.722000
     23 N24        123.2820   117.6020   119.4240 nc         1 YUX      -0.378300
     24 O25        123.2430   117.4700   120.8290 os         1 YUX      -0.087700
     25 H1         122.8650   117.8540   114.4650 ha         1 YUX       0.115500
     26 H2         120.4910   119.1510   113.1360 hc         1 YUX       0.043200
     27 H3         118.9220   118.4990   113.6070 hc         1 YUX       0.043200
     28 H4         119.3520   120.4590   111.2730 hc         1 YUX       0.038200
     29 H5         117.7740   119.7850   111.6600 hc         1 YUX       0.038200
     30 H6         116.3270   118.8020   109.7590 hc         1 YUX       0.037700
     31 H7         117.5770   117.6510   109.2840 hc         1 YUX       0.037700
     32 H8         116.1890   117.8380   105.0910 hc         1 YUX       0.036700
     33 H9         114.9310   118.9820   105.5580 hc         1 YUX       0.036700
     34 H10        113.9670   117.1020   104.2400 hc         1 YUX       0.031367
     35 H11        114.5840   115.9260   105.4210 hc         1 YUX       0.031367
     36 H12        113.3150   117.0800   105.8930 hc         1 YUX       0.031367
     37 H13        119.0280   116.2490   115.6200 ha         1 YUX       0.115500
     38 H14        122.1620   115.7570   125.1450 h1         1 YUX       0.028200
     39 H15        120.6040   115.0740   124.6090 h1         1 YUX       0.028200
     40 H16        121.6230   114.5240   122.3790 hc         1 YUX       0.061700
     41 H17        123.1670   115.1900   122.9130 hc         1 YUX       0.061700
     42 H18        122.0910   117.4510   123.1840 hc         1 YUX       0.074700
     43 H19        120.5540   116.7860   122.6540 hc         1 YUX       0.074700
     44 H20        123.5590   117.9290   116.8280 ha         1 YUX       0.132000
     45 H21        119.7870   116.1670   113.2430 hc         1 YUX       0.048200
     46 H22        121.3480   116.8150   112.7740 hc         1 YUX       0.048200
     47 H23        118.6700   117.4660   111.3340 hc         1 YUX       0.038200
     48 H24        120.2340   118.1260   110.8550 hc         1 YUX       0.038200
     49 H25        119.2010   119.5310   108.9500 hc         1 YUX       0.037700
     50 H26        117.9430   120.6990   109.3320 hc         1 YUX       0.037700
     51 H27        117.6860   118.6990   107.0080 hc         1 YUX       0.036700
     52 H28        116.4280   119.8440   107.4750 hc         1 YUX       0.036700
     53 H29        114.8320   117.9380   107.8440 hc         1 YUX       0.036700
     54 H30        116.0900   116.7940   107.3760 hc         1 YUX       0.036700
     55 H31        119.7010   116.3140   117.9900 ha         1 YUX       0.132000
     56 H32        121.8170   113.5030   125.8830 hn         1 YUX       0.395500
     57 H33        121.6300   112.9580   124.3760 hn         1 YUX       0.395500
     58 C04        121.6400   116.6870   122.5410 c3         1 YUX      -0.115700
@<TRIPOS>BOND
     1     1    13 ar  
     2     1    14 ar  
     3     1    25 1   
     4     2    15 1   
     5     2    16 1   
     6     2    26 1   
     7     2    27 1   
     8     3    16 1   
     9     3    17 1   
    10     3    28 1   
    11     3    29 1   
    12     4    17 1   
    13     4    18 1   
    14     4    30 1   
    15     4    31 1   
    16     5     6 1   
    17     5    19 1   
    18     5    32 1   
    19     5    33 1   
    20     6    34 1   
    21     6    35 1   
    22     6    36 1   
    23     7    14 ar  
    24     7    20 ar  
    25     7    37 1   
    26     8     9 1   
    27     8    21 1   
    28     8    38 1   
    29     8    39 1   
    30     9    40 1   
    31     9    41 1   
    32     9    58 1   
    33    10    22 2   
    34    10    24 1   
    35    10    58 1   
    36    11    12 1   
    37    11    22 1   
    38    11    23 2   
    39    12    13 ar  
    40    12    20 ar  
    41    13    44 1   
    42    14    15 1   
    43    15    45 1   
    44    15    46 1   
    45    16    47 1   
    46    16    48 1   
    47    17    49 1   
    48    17    50 1   
    49    18    19 1   
    50    18    51 1   
    51    18    52 1   
    52    19    53 1   
    53    19    54 1   
    54    20    55 1   
    55    21    56 1   
    56    21    57 1   
    57    23    24 1   
    58    42    58 1   
    59    43    58 1   
@<TRIPOS>SUBSTRUCTURE
     1 YUX         1 TEMP              0 ****  ****    0 ROOT
