@<TRIPOS>MOLECULE
YUY
  131   138     1     0     0
SMALL
abcg2


@<TRIPOS>ATOM
      1 C8         147.4360   170.3350   185.4550 c5         1 YUY      -0.063700
      2 C5         145.7820   170.2950   179.6490 c6         1 YUY       0.165600
      3 C6         146.6370   170.3330   183.2130 c5         1 YUY       0.161300
      4 O6         149.3490   168.3670   201.8430 os         1 YUY      -0.443000
      5 C2         145.2240   167.8920   179.8810 c6         1 YUY      -0.069400
      6 C4         146.9230   169.0610   181.3420 c5         1 YUY       0.386000
      7 C          144.0590   169.3000   178.1310 c3         1 YUY      -0.084100
      8 O          146.9700   170.0940   180.3910 os         1 YUY      -0.473000
      9 C1         145.3510   169.0470   178.8930 c6         1 YUY      -0.099700
     10 O1         146.0150   169.3800   182.3670 os         1 YUY      -0.466000
     11 O2         149.1380   170.9300   193.1860 os         1 YUY      -0.463000
     12 C3         146.4990   167.7470   180.7020 c6         1 YUY      -0.083400
     13 O3         147.9170   171.2890   197.5000 os         1 YUY      -0.433000
     14 O4         149.4680   170.2170   198.7210 os         1 YUY      -0.473000
     15 C7         146.1320   170.2840   184.6600 c5         1 YUY      -0.072400
     16 O7         150.4570   167.1190   203.2500 os         1 YUY      -0.426000
     17 C9         147.4040   170.0700   186.9500 c6         1 YUY      -0.042700
     18 O9         149.1010   165.1190   205.0450 oh         1 YUY      -0.704000
     19 C10        146.5180   171.0850   187.6620 c6         1 YUY      -0.037200
     20 O10        149.5930   164.1220   201.6180 oh         1 YUY      -0.662000
     21 C11        146.7260   171.0900   189.1410 c2         1 YUY      -0.218200
     22 O11        147.5910   166.7340   203.0880 oh         1 YUY      -0.690000
     23 C12        147.7400   170.4970   189.7690 c2         1 YUY      -0.108400
     24 O12        146.5870   168.3580   200.9510 oh         1 YUY      -0.747000
     25 C13        147.8170   170.5100   191.2740 c6         1 YUY      -0.036200
     26 O13        145.9270   170.5520   199.2940 oh         1 YUY      -0.705000
     27 C14        149.1660   171.0030   191.7780 c6         1 YUY       0.177300
     28 C15        150.2810   170.1810   191.1480 c6         1 YUY      -0.107400
     29 C16        150.2010   170.2610   189.6280 c6         1 YUY      -0.064400
     30 C17        148.8610   169.7810   189.0340 c6         1 YUY       0.002200
     31 C18        148.7110   168.2660   189.2490 c3         1 YUY      -0.079100
     32 C19        148.8310   170.1420   187.5250 c6         1 YUY      -0.046700
     33 C20        149.8550   169.3460   186.7000 c6         1 YUY      -0.070400
     34 C21        149.7920   169.6370   185.2000 c6         1 YUY      -0.062400
     35 C22        148.3820   169.4180   184.6640 c5         1 YUY      -0.036000
     36 C23        147.9950   167.9400   184.7990 c3         1 YUY      -0.082100
     37 C24        148.1360   169.9470   183.2340 c5         1 YUY      -0.087700
     38 C25        148.2980   169.0000   182.0380 c5         1 YUY      -0.065700
     39 C26        149.4940   169.3030   181.1510 c3         1 YUY      -0.071100
     40 C27        150.2350   171.5240   193.8410 c3         1 YUY       0.165600
     41 C28        149.9170   171.6700   195.3160 c3         1 YUY      -0.071400
     42 C29        148.7350   172.5860   195.6480 c3         1 YUY      -0.059700
     43 C30        148.4340   172.5630   197.1420 c3         1 YUY       0.169600
     44 C31        148.2160   170.8570   198.7690 c6         1 YUY       0.402300
     45 C32        147.1510   169.8690   199.2280 c6         1 YUY       0.151300
     46 C33        147.5560   169.3040   200.5840 c6         1 YUY       0.129300
     47 C34        148.9650   168.7190   200.5290 c6         1 YUY       0.110300
     48 C35        149.9380   169.7650   199.9730 c6         1 YUY       0.169300
     49 C36        151.3270   169.1940   199.7760 c3         1 YUY       0.169600
     50 C37        149.7190   167.0430   202.0690 c6         1 YUY       0.417300
     51 C38        148.5110   166.1170   202.2180 c6         1 YUY       0.115300
     52 C39        148.9680   164.7410   202.7170 c6         1 YUY       0.138300
     53 C40        149.9070   164.8360   203.9240 c6         1 YUY       0.119300
     54 C41        150.9940   165.9020   203.7320 c6         1 YUY       0.152300
     55 C42        152.1910   165.4510   202.8920 c3         1 YUY       0.125600
     56 C43        148.9300   174.0190   195.1760 c3         1 YUY       0.161600
     57 H1         147.8360   171.3550   185.3330 hc         1 YUY       0.042700
     58 H2         145.9930   171.1100   178.9530 h1         1 YUY       0.047200
     59 H3         144.9610   170.6310   180.2980 h1         1 YUY       0.047200
     60 H4         146.4990   171.3410   182.8040 h1         1 YUY       0.050700
     61 H5         144.3710   168.0760   180.5430 hc         1 YUY       0.047700
     62 H6         145.0110   166.9600   179.3510 hc         1 YUY       0.047700
     63 H7         143.7620   168.4180   177.5620 hc         1 YUY       0.034367
     64 H8         143.2420   169.5430   178.8140 hc         1 YUY       0.034367
     65 H9         144.1650   170.1280   177.4280 hc         1 YUY       0.034367
     66 H10        146.1410   168.8010   178.1730 hc         1 YUY       0.053700
     67 H11        146.3810   166.9900   181.4810 hc         1 YUY       0.054700
     68 H12        147.3160   167.4070   180.0580 hc         1 YUY       0.054700
     69 H13        153.0730   169.8520   199.2680 ho         1 YUY       0.501000
     70 H14        145.4580   171.1100   184.8900 hc         1 YUY       0.055200
     71 H15        145.5850   169.3570   184.8540 hc         1 YUY       0.055200
     72 H16        153.5120   164.0370   203.0350 ho         1 YUY       0.512000
     73 H17        146.9910   169.0710   187.1320 hc         1 YUY       0.056700
     74 H19        146.7100   172.0900   187.2620 hc         1 YUY       0.046700
     75 H20        145.4650   170.8850   187.4440 hc         1 YUY       0.046700
     76 H21        149.8870   163.2440   201.8800 ho         1 YUY       0.454000
     77 H22        145.9790   171.6110   189.7350 ha         1 YUY       0.171000
     78 H23        146.9000   166.1010   203.3110 ho         1 YUY       0.511000
     79 H24        146.8000   168.0030   201.8290 ho         1 YUY       0.543000
     80 H25        147.0160   171.1320   191.6790 hc         1 YUY       0.058200
     81 H26        147.6590   169.4990   191.6670 hc         1 YUY       0.058200
     82 H27        145.2690   169.9480   199.6550 ho         1 YUY       0.521000
     83 H28        149.2960   172.0530   191.4650 h1         1 YUY       0.028700
     84 H29        150.1560   175.4860   195.5160 ho         1 YUY       0.439000
     85 H30        150.2040   169.1440   191.4900 hc         1 YUY       0.047200
     86 H31        151.2620   170.5440   191.4660 hc         1 YUY       0.047200
     87 H32        151.0210   169.6830   189.1960 hc         1 YUY       0.040200
     88 H33        150.3620   171.3010   189.3230 hc         1 YUY       0.040200
     89 H34        148.5440   168.0130   190.2960 hc         1 YUY       0.034700
     90 H35        147.8660   167.8670   188.6860 hc         1 YUY       0.034700
     91 H36        149.6070   167.7290   188.9350 hc         1 YUY       0.034700
     92 H37        149.1250   171.2010   187.4530 hc         1 YUY       0.044700
     93 H38        149.7170   168.2750   186.8550 hc         1 YUY       0.040200
     94 H39        150.8630   169.5700   187.0590 hc         1 YUY       0.040200
     95 H40        150.5150   169.0050   184.6740 hc         1 YUY       0.039700
     96 H41        150.0920   170.6750   185.0160 hc         1 YUY       0.039700
     97 H42        147.9060   167.6280   185.8390 hc         1 YUY       0.036033
     98 H43        147.0480   167.7040   184.3130 hc         1 YUY       0.036033
     99 H44        148.7560   167.3000   184.3480 hc         1 YUY       0.036033
    100 H45        148.7500   170.8430   183.0960 hc         1 YUY       0.063700
    101 H46        148.4090   167.9720   182.3930 hc         1 YUY       0.061700
    102 H47        150.4190   169.1350   181.7040 hc         1 YUY       0.037367
    103 H48        149.5200   168.6540   180.2730 hc         1 YUY       0.037367
    104 H49        149.4990   170.3370   180.8070 hc         1 YUY       0.037367
    105 H50        151.1390   170.9110   193.7370 h1         1 YUY       0.018200
    106 H51        150.4700   172.4990   193.3910 h1         1 YUY       0.018200
    107 H52        149.7300   170.6760   195.7300 hc         1 YUY       0.065200
    108 H53        150.8170   172.0360   195.8160 hc         1 YUY       0.065200
    109 H54        147.8430   172.2230   195.1250 hc         1 YUY       0.074700
    110 H55        149.3410   172.7910   197.7100 h1         1 YUY       0.042700
    111 H56        147.6910   173.3330   197.3860 h1         1 YUY       0.042700
    112 H57        148.2570   171.6990   199.4850 h2         1 YUY       0.034700
    113 H58        147.1130   169.0430   198.4990 h1         1 YUY       0.062700
    114 H59        147.5800   170.1430   201.3010 h1         1 YUY       0.055700
    115 H60        148.9660   167.8430   199.8650 h1         1 YUY       0.060700
    116 H61        149.9940   170.6030   200.6870 h1         1 YUY       0.064700
    117 H62        151.2720   168.3630   199.0580 h1         1 YUY       0.027700
    118 H63        151.6630   168.7720   200.7300 h1         1 YUY       0.027700
    119 H64        150.3300   166.6680   201.2320 h2         1 YUY       0.032700
    120 H65        148.0670   165.9680   201.2230 h1         1 YUY       0.058700
    121 H66        148.0800   164.1690   203.0300 h1         1 YUY       0.052700
    122 H67        150.4010   163.8620   204.0460 h1         1 YUY       0.048700
    123 H68        151.3930   166.1490   204.7230 h1         1 YUY       0.090700
    124 H69        152.8520   166.3180   202.7600 h1         1 YUY       0.037700
    125 H70        151.8830   165.1250   201.8940 h1         1 YUY       0.037700
    126 H71        149.0410   174.0380   194.0850 h1         1 YUY       0.019700
    127 H72        148.0170   174.5880   195.4020 h1         1 YUY       0.019700
    128 O5         152.1850   170.2160   199.3330 oh         1 YUY      -0.703000
    129 O14        150.0550   174.5790   195.8190 oh         1 YUY      -0.664000
    130 H18        149.6460   165.0590   205.8350 ho         1 YUY       0.513000
    131 O8         152.8290   164.4120   203.5980 oh         1 YUY      -0.728000
@<TRIPOS>BOND
     1     1    15 1   
     2     1    17 1   
     3     1    35 1   
     4     1    57 1   
     5     2     8 1   
     6     2     9 1   
     7     2    58 1   
     8     2    59 1   
     9     3    10 1   
    10     3    15 1   
    11     3    37 1   
    12     3    60 1   
    13     4    47 1   
    14     4    50 1   
    15     5     9 1   
    16     5    12 1   
    17     5    61 1   
    18     5    62 1   
    19     6     8 1   
    20     6    10 1   
    21     6    12 1   
    22     6    38 1   
    23     7     9 1   
    24     7    63 1   
    25     7    64 1   
    26     7    65 1   
    27     9    66 1   
    28    11    27 1   
    29    11    40 1   
    30    12    67 1   
    31    12    68 1   
    32    13    43 1   
    33    13    44 1   
    34    14    44 1   
    35    14    48 1   
    36    15    70 1   
    37    15    71 1   
    38    16    50 1   
    39    16    54 1   
    40    17    19 1   
    41    17    32 1   
    42    17    73 1   
    43    18    53 1   
    44    18   130 1   
    45    19    21 1   
    46    19    74 1   
    47    19    75 1   
    48    20    52 1   
    49    20    76 1   
    50    21    23 2   
    51    21    77 1   
    52    22    51 1   
    53    22    78 1   
    54    23    25 1   
    55    23    30 1   
    56    24    46 1   
    57    24    79 1   
    58    25    27 1   
    59    25    80 1   
    60    25    81 1   
    61    26    45 1   
    62    26    82 1   
    63    27    28 1   
    64    27    83 1   
    65    28    29 1   
    66    28    85 1   
    67    28    86 1   
    68    29    30 1   
    69    29    87 1   
    70    29    88 1   
    71    30    31 1   
    72    30    32 1   
    73    31    89 1   
    74    31    90 1   
    75    31    91 1   
    76    32    33 1   
    77    32    92 1   
    78    33    34 1   
    79    33    93 1   
    80    33    94 1   
    81    34    35 1   
    82    34    95 1   
    83    34    96 1   
    84    35    36 1   
    85    35    37 1   
    86    36    97 1   
    87    36    98 1   
    88    36    99 1   
    89    37    38 1   
    90    37   100 1   
    91    38    39 1   
    92    38   101 1   
    93    39   102 1   
    94    39   103 1   
    95    39   104 1   
    96    40    41 1   
    97    40   105 1   
    98    40   106 1   
    99    41    42 1   
   100    41   107 1   
   101    41   108 1   
   102    42    43 1   
   103    42    56 1   
   104    42   109 1   
   105    43   110 1   
   106    43   111 1   
   107    44    45 1   
   108    44   112 1   
   109    45    46 1   
   110    45   113 1   
   111    46    47 1   
   112    46   114 1   
   113    47    48 1   
   114    47   115 1   
   115    48    49 1   
   116    48   116 1   
   117    49   117 1   
   118    49   118 1   
   119    49   128 1   
   120    50    51 1   
   121    50   119 1   
   122    51    52 1   
   123    51   120 1   
   124    52    53 1   
   125    52   121 1   
   126    53    54 1   
   127    53   122 1   
   128    54    55 1   
   129    54   123 1   
   130    55   124 1   
   131    55   125 1   
   132    55   131 1   
   133    56   126 1   
   134    56   127 1   
   135    56   129 1   
   136    69   128 1   
   137    72   131 1   
   138    84   129 1   
@<TRIPOS>SUBSTRUCTURE
     1 YUY         1 TEMP              0 ****  ****    0 ROOT
