@<TRIPOS>MOLECULE
YUY
  131   138     1     0     0
SMALL
No Charge or Current Charge


@<TRIPOS>ATOM
      1 C8         147.2520   170.4700   184.9890 c5         1 YUY      -0.063700
      2 C5         145.5070   170.9960   179.0880 c6         1 YUY       0.165600
      3 C6         146.3850   170.7170   182.7430 c5         1 YUY       0.161300
      4 O6         148.8720   168.3470   202.5890 os         1 YUY      -0.443000
      5 C2         144.8940   168.5400   179.1460 c6         1 YUY      -0.069400
      6 C4         146.6100   169.5230   180.7810 c5         1 YUY       0.386000
      7 C          143.8520   170.0610   177.3720 c3         1 YUY      -0.084100
      8 O          146.6230   170.7370   179.9750 os         1 YUY      -0.473000
      9 C1         145.1060   169.7660   178.2370 c6         1 YUY      -0.099700
     10 O1         145.7300   169.7540   181.9000 os         1 YUY      -0.466000
     11 O2         149.4060   170.5380   192.7940 os         1 YUY      -0.463000
     12 C3         146.1750   168.2790   179.9590 c6         1 YUY      -0.083400
     13 O3         148.7060   170.3540   197.3330 os         1 YUY      -0.433000
     14 O4         149.7420   170.1400   199.4220 os         1 YUY      -0.473000
     15 C7         145.8960   170.5820   184.2240 c5         1 YUY      -0.072400
     16 O7         149.5010   167.4960   204.6390 os         1 YUY      -0.426000
     17 C9         147.2250   170.1030   186.5020 c6         1 YUY      -0.042700
     18 O9         148.4680   164.8440   205.4620 oh         1 YUY      -0.704000
     19 C10        146.4810   171.1970   187.3110 c6         1 YUY      -0.037200
     20 O10        151.4100   164.8310   203.1720 oh         1 YUY      -0.662000
     21 C11        146.7460   171.1270   188.8030 c2         1 YUY      -0.218200
     22 O11        147.8140   165.7230   202.9760 oh         1 YUY      -0.690000
     23 C12        147.7240   170.4020   189.3760 c2         1 YUY      -0.108400
     24 O12        147.1470   167.0250   200.6330 oh         1 YUY      -0.747000
     25 C13        147.8820   170.3890   190.9010 c6         1 YUY      -0.036200
     26 O13        146.5990   168.4380   198.2530 oh         1 YUY      -0.705000
     27 C14        149.3380   170.6280   191.3550 c6         1 YUY       0.177300
     28 C15        150.2820   169.6130   190.6670 c6         1 YUY      -0.107400
     29 C16        150.1650   169.7100   189.1260 c6         1 YUY      -0.064400
     30 C17        148.7090   169.5180   188.5730 c6         1 YUY       0.002200
     31 C18        148.2490   168.0320   188.7810 c3         1 YUY      -0.079100
     32 C19        148.6890   169.9300   187.0400 c6         1 YUY      -0.046700
     33 C20        149.5510   168.9860   186.1170 c6         1 YUY      -0.070400
     34 C21        149.4990   169.3860   184.6150 c6         1 YUY      -0.062400
     35 C22        148.0360   169.4600   184.0960 c5         1 YUY      -0.036000
     36 C23        147.4290   168.0040   184.1060 c3         1 YUY      -0.082100
     37 C24        147.8780   170.2760   182.7480 c5         1 YUY      -0.087700
     38 C25        148.0260   169.3840   181.4570 c5         1 YUY      -0.065700
     39 C26        149.2450   169.7460   180.5730 c3         1 YUY      -0.071100
     40 C27        150.6440   170.9110   193.4260 c3         1 YUY       0.165600
     41 C28        150.4350   170.8840   194.9560 c3         1 YUY      -0.071400
     42 C29        149.3050   171.8180   195.4930 c3         1 YUY      -0.059700
     43 C30        149.1300   171.6940   197.0280 c3         1 YUY       0.169600
     44 C31        148.4810   170.0620   198.7240 c6         1 YUY       0.402300
     45 C32        147.8720   168.6280   198.9110 c6         1 YUY       0.151300
     46 C33        147.7000   168.3460   200.4300 c6         1 YUY       0.129300
     47 C34        149.0560   168.5460   201.1690 c6         1 YUY       0.110300
     48 C35        149.6350   169.9600   200.8590 c6         1 YUY       0.169300
     49 C36        151.0470   170.1840   201.4960 c3         1 YUY       0.169600
     50 C37        149.6940   167.3390   203.2140 c6         1 YUY       0.417300
     51 C38        149.2350   165.9030   202.7630 c6         1 YUY       0.115300
     52 C39        150.0270   164.8270   203.5690 c6         1 YUY       0.138300
     53 C40        149.8530   165.0870   205.1080 c6         1 YUY       0.119300
     54 C41        150.2380   166.5660   205.4780 c6         1 YUY       0.152300
     55 C42        151.7660   166.9200   205.4500 c3         1 YUY       0.125600
     56 C43        149.4830   173.3030   195.0780 c3         1 YUY       0.161600
     57 H1         147.7520   171.4490   184.9680 hc         1 YUY       0.042700
     58 H2         145.7650   171.8420   178.4340 h1         1 YUY       0.047200
     59 H3         144.6490   171.3040   179.7030 h1         1 YUY       0.047200
     60 H4         146.2520   171.7300   182.3360 h1         1 YUY       0.050700
     61 H5         144.0500   168.7190   179.8260 hc         1 YUY       0.047700
     62 H6         144.6430   167.6550   178.5460 hc         1 YUY       0.047700
     63 H7         143.5940   169.2010   176.7420 hc         1 YUY       0.034367
     64 H8         142.9800   170.2900   177.9960 hc         1 YUY       0.034367
     65 H9         144.0210   170.9170   176.7080 hc         1 YUY       0.034367
     66 H10        145.9230   169.5510   177.5330 hc         1 YUY       0.053700
     67 H11        146.0200   167.4290   180.6360 hc         1 YUY       0.054700
     68 H12        146.9890   167.9880   179.2820 hc         1 YUY       0.054700
     69 H13        152.5260   171.4830   201.5610 ho         1 YUY       0.501000
     70 H14        145.3230   171.4610   184.5370 hc         1 YUY       0.055200
     71 H15        145.2520   169.7100   184.3790 hc         1 YUY       0.055200
     72 H16        153.4790   166.3870   206.2700 ho         1 YUY       0.512000
     73 H17        146.6750   169.1630   186.6300 hc         1 YUY       0.056700
     74 H19        146.7740   172.1970   186.9600 hc         1 YUY       0.046700
     75 H20        145.4010   171.1130   187.1290 hc         1 YUY       0.046700
     76 H21        151.8330   164.0440   203.5840 ho         1 YUY       0.454000
     77 H22        146.0690   171.7220   189.4190 ha         1 YUY       0.171000
     78 H23        147.7600   165.4510   203.9360 ho         1 YUY       0.511000
     79 H24        147.3860   166.7310   201.5600 ho         1 YUY       0.543000
     80 H25        147.2360   171.1500   191.3580 hc         1 YUY       0.058200
     81 H26        147.5330   169.4260   191.2970 hc         1 YUY       0.058200
     82 H27        146.1940   167.6820   198.7460 ho         1 YUY       0.521000
     83 H28        149.6300   171.6470   191.0580 h1         1 YUY       0.028700
     84 H29        150.7580   174.7750   195.2980 ho         1 YUY       0.439000
     85 H30        150.0550   168.5940   191.0070 hc         1 YUY       0.047200
     86 H31        151.3240   169.8110   190.9480 hc         1 YUY       0.047200
     87 H32        150.8430   168.9690   188.6820 hc         1 YUY       0.040200
     88 H33        150.5480   170.6920   188.8170 hc         1 YUY       0.040200
     89 H34        148.1870   167.7640   189.8410 hc         1 YUY       0.034700
     90 H35        147.2580   167.8450   188.3550 hc         1 YUY       0.034700
     91 H36        148.9470   167.3180   188.3300 hc         1 YUY       0.034700
     92 H37        149.1520   170.9250   186.9710 hc         1 YUY       0.044700
     93 H38        149.2310   167.9430   186.2160 hc         1 YUY       0.040200
     94 H39        150.6010   169.0060   186.4350 hc         1 YUY       0.040200
     95 H40        150.0830   168.6760   184.0130 hc         1 YUY       0.039700
     96 H41        149.9890   170.3630   184.4910 hc         1 YUY       0.039700
     97 H42        147.2410   167.6330   185.1180 hc         1 YUY       0.036033
     98 H43        146.4790   167.9300   183.5680 hc         1 YUY       0.036033
     99 H44        148.1120   167.2820   183.6430 hc         1 YUY       0.036033
    100 H45        148.5320   171.1560   182.7170 hc         1 YUY       0.063700
    101 H46        148.1920   168.3310   181.6950 hc         1 YUY       0.061700
    102 H47        150.1830   169.5630   181.1120 hc         1 YUY       0.037367
    103 H48        149.2640   169.1420   179.6580 hc         1 YUY       0.037367
    104 H49        149.2340   170.8020   180.2790 hc         1 YUY       0.037367
    105 H50        151.4440   170.2050   193.1680 h1         1 YUY       0.018200
    106 H51        150.9590   171.9130   193.1080 h1         1 YUY       0.018200
    107 H52        150.2220   169.8500   195.2490 hc         1 YUY       0.065200
    108 H53        151.3840   171.1480   195.4380 hc         1 YUY       0.065200
    109 H54        148.3610   171.4860   195.0450 hc         1 YUY       0.074700
    110 H55        150.0790   171.9300   197.5270 h1         1 YUY       0.042700
    111 H56        148.3760   172.4160   197.3690 h1         1 YUY       0.042700
    112 H57        147.7850   170.8070   199.1380 h2         1 YUY       0.034700
    113 H58        148.6020   167.9080   198.5120 h1         1 YUY       0.062700
    114 H59        147.0000   169.0950   200.8320 h1         1 YUY       0.055700
    115 H60        149.7710   167.8050   200.7820 h1         1 YUY       0.060700
    116 H61        148.9560   170.7250   201.2620 h1         1 YUY       0.064700
    117 H62        151.7120   169.3830   201.1450 h1         1 YUY       0.027700
    118 H63        150.9530   170.0750   202.5850 h1         1 YUY       0.027700
    119 H64        150.7490   167.5070   202.9550 h2         1 YUY       0.032700
    120 H65        149.4720   165.7700   201.6980 h1         1 YUY       0.058700
    121 H66        149.5960   163.8420   203.3370 h1         1 YUY       0.052700
    122 H67        150.5030   164.3930   205.6620 h1         1 YUY       0.048700
    123 H68        149.9140   166.7400   206.5140 h1         1 YUY       0.090700
    124 H69        151.8660   167.9690   205.7610 h1         1 YUY       0.037700
    125 H70        152.1520   166.8580   204.4260 h1         1 YUY       0.037700
    126 H71        149.4700   173.3810   193.9830 h1         1 YUY       0.019700
    127 H72        148.6280   173.8820   195.4510 h1         1 YUY       0.019700
    128 O5         151.6160   171.4700   201.1830 oh         1 YUY      -0.703000
    129 O14        150.7040   173.8410   195.6000 oh         1 YUY      -0.664000
    130 H18        148.4430   164.6490   206.4300 ho         1 YUY       0.513000
    131 O8         152.5420   166.0790   206.3230 oh         1 YUY      -0.728000
@<TRIPOS>BOND
     1     1    15 1   
     2     1    17 1   
     3     1    35 1   
     4     1    57 1   
     5     2     8 1   
     6     2     9 1   
     7     2    58 1   
     8     2    59 1   
     9     3    10 1   
    10     3    15 1   
    11     3    37 1   
    12     3    60 1   
    13     4    47 1   
    14     4    50 1   
    15     5     9 1   
    16     5    12 1   
    17     5    61 1   
    18     5    62 1   
    19     6     8 1   
    20     6    10 1   
    21     6    12 1   
    22     6    38 1   
    23     7     9 1   
    24     7    63 1   
    25     7    64 1   
    26     7    65 1   
    27     9    66 1   
    28    11    27 1   
    29    11    40 1   
    30    12    67 1   
    31    12    68 1   
    32    13    43 1   
    33    13    44 1   
    34    14    44 1   
    35    14    48 1   
    36    15    70 1   
    37    15    71 1   
    38    16    50 1   
    39    16    54 1   
    40    17    19 1   
    41    17    32 1   
    42    17    73 1   
    43    18    53 1   
    44    18   130 1   
    45    19    21 1   
    46    19    74 1   
    47    19    75 1   
    48    20    52 1   
    49    20    76 1   
    50    21    23 2   
    51    21    77 1   
    52    22    51 1   
    53    22    78 1   
    54    23    25 1   
    55    23    30 1   
    56    24    46 1   
    57    24    79 1   
    58    25    27 1   
    59    25    80 1   
    60    25    81 1   
    61    26    45 1   
    62    26    82 1   
    63    27    28 1   
    64    27    83 1   
    65    28    29 1   
    66    28    85 1   
    67    28    86 1   
    68    29    30 1   
    69    29    87 1   
    70    29    88 1   
    71    30    31 1   
    72    30    32 1   
    73    31    89 1   
    74    31    90 1   
    75    31    91 1   
    76    32    33 1   
    77    32    92 1   
    78    33    34 1   
    79    33    93 1   
    80    33    94 1   
    81    34    35 1   
    82    34    95 1   
    83    34    96 1   
    84    35    36 1   
    85    35    37 1   
    86    36    97 1   
    87    36    98 1   
    88    36    99 1   
    89    37    38 1   
    90    37   100 1   
    91    38    39 1   
    92    38   101 1   
    93    39   102 1   
    94    39   103 1   
    95    39   104 1   
    96    40    41 1   
    97    40   105 1   
    98    40   106 1   
    99    41    42 1   
   100    41   107 1   
   101    41   108 1   
   102    42    43 1   
   103    42    56 1   
   104    42   109 1   
   105    43   110 1   
   106    43   111 1   
   107    44    45 1   
   108    44   112 1   
   109    45    46 1   
   110    45   113 1   
   111    46    47 1   
   112    46   114 1   
   113    47    48 1   
   114    47   115 1   
   115    48    49 1   
   116    48   116 1   
   117    49   117 1   
   118    49   118 1   
   119    49   128 1   
   120    50    51 1   
   121    50   119 1   
   122    51    52 1   
   123    51   120 1   
   124    52    53 1   
   125    52   121 1   
   126    53    54 1   
   127    53   122 1   
   128    54    55 1   
   129    54   123 1   
   130    55   124 1   
   131    55   125 1   
   132    55   131 1   
   133    56   126 1   
   134    56   127 1   
   135    56   129 1   
   136    69   128 1   
   137    72   131 1   
   138    84   129 1   
@<TRIPOS>SUBSTRUCTURE
     1 YUY         1 TEMP              0 ****  ****    0 ROOT
