@<TRIPOS>MOLECULE
YUZ
   61    64     1     0     0
SMALL
No Charge or Current Charge


@<TRIPOS>ATOM
      1 C23        -21.8040   -11.7310     9.6560 cc         1 YUZ      -0.156400
      2 C20        -22.0550    -9.1310     9.7380 c          1 YUZ       0.725200
      3 C12        -23.0190   -13.0450    12.7830 ca         1 YUZ      -0.089300
      4 C11        -26.0870   -12.7370    13.5570 cc         1 YUZ       0.247900
      5 C13        -22.8910   -14.4490    12.6400 ca         1 YUZ      -0.110000
      6 C19        -22.1460   -10.5290    10.2900 cd         1 YUZ      -0.055300
      7 C17        -22.6150   -12.2440    11.6930 ca         1 YUZ      -0.063200
      8 C16        -22.1200   -12.8030    10.5470 ca         1 YUZ      -0.081800
      9 C15        -21.9810   -14.1870    10.3830 ca         1 YUZ      -0.075000
     10 C14        -22.3760   -15.0150    11.4510 ca         1 YUZ      -0.156000
     11 C01        -22.6050   -12.6590    15.2520 c3         1 YUZ      -0.084100
     12 C02        -23.5840   -12.4490    14.0750 c3         1 YUZ       0.072900
     13 C03        -24.9650   -12.9890    14.3640 cc         1 YUZ      -0.174300
     14 C04        -25.4120   -13.7900    15.3740 cd         1 YUZ      -0.176000
     15 C07        -28.5370   -13.9100    16.9400 c3         1 YUZ      -0.098400
     16 C08        -27.6690   -13.2050    18.0020 c3         1 YUZ       0.145800
     17 C24        -21.2550   -11.8410     8.3080 ca         1 YUZ       0.099200
     18 C25        -21.9900   -12.4910     7.3010 ca         1 YUZ      -0.133000
     19 C26        -21.4580   -12.6380     6.0090 ca         1 YUZ      -0.070000
     20 C27        -20.1750   -12.1410     5.7100 ca         1 YUZ      -0.162300
     21 C28        -19.6070   -12.3070     4.2950 c3         1 YUZ      -0.201100
     22 C30        -19.6200    -9.4750     3.8640 c3         1 YUZ      -0.324100
     23 C33        -19.4330   -11.5040     6.7280 ca         1 YUZ       0.163000
     24 C35        -19.9660   -11.3600     8.0170 ca         1 YUZ      -0.107000
     25 F34        -18.1940   -11.0280     6.4720 f          1 YUZ      -0.200000
     26 N05        -26.7760   -13.9660    15.1220 na         1 YUZ       0.119800
     27 N09        -28.5030   -12.4670    18.9690 n8         1 YUZ      -1.000200
     28 N10        -27.1990   -13.3050    13.9780 nd         1 YUZ      -0.541800
     29 N18        -22.6380   -10.8570    11.5820 na         1 YUZ      -0.196700
     30 O21        -21.6670    -8.9350     8.5950 o          1 YUZ      -0.700500
     31 O22        -22.4010    -8.2160    10.4740 o          1 YUZ      -0.700500
     32 O31        -19.2900   -11.1990     1.8930 o          1 YUZ      -0.537500
     33 O32        -21.5650   -11.0360     2.9980 o          1 YUZ      -0.537500
     34 S29        -20.1000   -11.0270     3.1070 s6         1 YUZ       1.064000
     35 H111       -26.1190   -12.1400    12.6550 h4         1 YUZ       0.039100
     36 H131       -23.1950   -15.1050    13.4520 ha         1 YUZ       0.096000
     37 H151       -21.5800   -14.6070     9.4640 ha         1 YUZ       0.106000
     38 H141       -22.2850   -16.0950    11.3600 ha         1 YUZ       0.092000
     39 H011       -22.9890   -12.1850    16.1630 hc         1 YUZ       0.034367
     40 H012       -22.4550   -13.7260    15.4550 hc         1 YUZ       0.034367
     41 H013       -21.6300   -12.2150    15.0210 hc         1 YUZ       0.034367
     42 H021       -23.6900   -11.3640    13.9610 hc         1 YUZ       0.056700
     43 H041       -24.9010   -14.2340    16.2200 h4         1 YUZ       0.150000
     44 H062       -28.4070   -15.2760    15.2600 h1         1 YUZ       0.059700
     45 H061       -27.1510   -15.5200    16.4830 h1         1 YUZ       0.059700
     46 H071       -29.1210   -13.1650    16.3870 hc         1 YUZ       0.060700
     47 H072       -29.2550   -14.5700    17.4430 hc         1 YUZ       0.060700
     48 H081       -27.0730   -13.9500    18.5460 h1         1 YUZ       0.033200
     49 H082       -26.9830   -12.4970    17.5160 h1         1 YUZ       0.033200
     50 H251       -22.9800   -12.8820     7.5250 ha         1 YUZ       0.121000
     51 H261       -22.0440   -13.1380     5.2410 ha         1 YUZ       0.110000
     52 H281       -19.9350   -13.2580     3.8600 h1         1 YUZ       0.097700
     53 H282       -18.5110   -12.2970     4.3100 h1         1 YUZ       0.097700
     54 H303       -20.1810    -9.3730     4.7980 h1         1 YUZ       0.106700
     55 H301       -18.5420    -9.5150     4.0510 h1         1 YUZ       0.106700
     56 H302       -19.8710    -8.6740     3.1620 h1         1 YUZ       0.106700
     57 H351       -19.3810   -10.8740     8.7920 ha         1 YUZ       0.152000
     58 H091       -27.8910   -11.9680    19.6260 hn         1 YUZ       0.392500
     59 H092       -28.9950   -11.7100    18.4780 hn         1 YUZ       0.392500
     60 H181       -22.9620   -10.1910    12.2740 hn         1 YUZ       0.369000
     61 C06        -27.7190   -14.7550    15.9370 c3         1 YUZ       0.090600
@<TRIPOS>BOND
     1     1     6 2   
     2     1     8 1   
     3     1    17 1   
     4     2     6 1   
     5     2    30 1   
     6     2    31 1   
     7     3     5 ar  
     8     3     7 ar  
     9     3    12 1   
    10     4    13 1   
    11     4    28 2   
    12     4    35 1   
    13     5    10 ar  
    14     5    36 1   
    15     6    29 1   
    16     7     8 ar  
    17     7    29 1   
    18     8     9 ar  
    19     9    10 ar  
    20     9    37 1   
    21    10    38 1   
    22    11    12 1   
    23    11    39 1   
    24    11    40 1   
    25    11    41 1   
    26    12    13 1   
    27    12    42 1   
    28    13    14 2   
    29    14    26 1   
    30    14    43 1   
    31    15    16 1   
    32    15    46 1   
    33    15    47 1   
    34    15    61 1   
    35    16    27 1   
    36    16    48 1   
    37    16    49 1   
    38    17    18 ar  
    39    17    24 ar  
    40    18    19 ar  
    41    18    50 1   
    42    19    20 ar  
    43    19    51 1   
    44    20    21 1   
    45    20    23 ar  
    46    21    34 1   
    47    21    52 1   
    48    21    53 1   
    49    22    34 1   
    50    22    54 1   
    51    22    55 1   
    52    22    56 1   
    53    23    24 ar  
    54    23    25 1   
    55    24    57 1   
    56    26    28 1   
    57    26    61 1   
    58    27    58 1   
    59    27    59 1   
    60    29    60 1   
    61    32    34 2   
    62    33    34 2   
    63    44    61 1   
    64    45    61 1   
@<TRIPOS>SUBSTRUCTURE
     1 YUZ         1 TEMP              0 ****  ****    0 ROOT
