@<TRIPOS>MOLECULE
YUZ
   61    64     1     0     0
SMALL
abcg2


@<TRIPOS>ATOM
      1 C23        -22.1530   -11.4260     9.4000 cc         1 YUZ      -0.156400
      2 C20        -22.0150    -8.8190     9.8550 c          1 YUZ       0.725200
      3 C12        -24.0710   -12.6410    12.2430 ca         1 YUZ      -0.089300
      4 C11        -27.0880   -12.4710    13.9830 cc         1 YUZ       0.247900
      5 C13        -24.1720   -13.9980    12.0030 ca         1 YUZ      -0.110000
      6 C19        -22.3690   -10.2660    10.1130 cd         1 YUZ      -0.055300
      7 C17        -23.3810   -11.8990    11.2730 ca         1 YUZ      -0.063200
      8 C16        -22.8000   -12.4810    10.1270 ca         1 YUZ      -0.081800
      9 C15        -22.9090   -13.8650     9.9350 ca         1 YUZ      -0.075000
     10 C14        -23.6000   -14.6040    10.8710 ca         1 YUZ      -0.156000
     11 C01        -23.4090   -11.7580    14.4770 c3         1 YUZ      -0.084100
     12 C02        -24.5760   -11.9680    13.5050 c3         1 YUZ       0.072900
     13 C03        -25.7110   -12.6930    14.1560 cc         1 YUZ      -0.174300
     14 C04        -25.6660   -13.7360    15.0580 cd         1 YUZ      -0.176000
     15 C07        -27.8170   -14.4650    17.6380 c3         1 YUZ      -0.098400
     16 C08        -26.6750   -13.8220    18.4110 c3         1 YUZ       0.145800
     17 C24        -21.3710   -11.6460     8.1820 ca         1 YUZ       0.099200
     18 C25        -21.9010   -12.3910     7.1250 ca         1 YUZ      -0.133000
     19 C26        -21.1360   -12.6930     6.0110 ca         1 YUZ      -0.070000
     20 C27        -19.8160   -12.2650     5.9040 ca         1 YUZ      -0.162300
     21 C28        -18.9700   -12.6290     4.7340 c3         1 YUZ      -0.201100
     22 C30        -18.6280    -9.9260     3.8930 c3         1 YUZ      -0.324100
     23 C33        -19.3200   -11.5080     6.9570 ca         1 YUZ       0.163000
     24 C35        -20.0560   -11.1970     8.0770 ca         1 YUZ      -0.107000
     25 F34        -18.0500   -11.0690     6.8870 f          1 YUZ      -0.200000
     26 N05        -26.9380   -14.0640    15.3510 na         1 YUZ       0.119800
     27 N09        -27.1370   -13.3600    19.7120 n8         1 YUZ      -1.000200
     28 N10        -27.8160   -13.2990    14.7120 nd         1 YUZ      -0.541800
     29 N18        -23.1030   -10.5670    11.2250 na         1 YUZ      -0.196700
     30 O21        -21.3910    -8.5690     8.8120 o          1 YUZ      -0.700500
     31 O22        -22.4080    -8.0210    10.7290 o          1 YUZ      -0.700500
     32 O31        -18.2450   -11.9860     2.2910 o          1 YUZ      -0.537500
     33 O32        -20.5930   -11.4310     2.9980 o          1 YUZ      -0.537500
     34 S29        -19.1710   -11.5220     3.3230 s6         1 YUZ       1.064000
     35 H111       -27.5640   -11.7350    13.3510 h4         1 YUZ       0.039100
     36 H131       -24.7030   -14.6220    12.7110 ha         1 YUZ       0.096000
     37 H151       -22.4620   -14.3460     9.0750 ha         1 YUZ       0.106000
     38 H141       -23.7030   -15.6730    10.7400 ha         1 YUZ       0.092000
     39 H011       -23.7380   -11.2200    15.3670 hc         1 YUZ       0.034367
     40 H012       -22.9870   -12.7130    14.7930 hc         1 YUZ       0.034367
     41 H013       -22.6090   -11.1810    14.0130 hc         1 YUZ       0.034367
     42 H021       -24.9560   -10.9780    13.2260 hc         1 YUZ       0.056700
     43 H041       -24.8340   -14.2610    15.5010 h4         1 YUZ       0.150000
     44 H062       -28.2210   -15.6000    15.8480 h1         1 YUZ       0.059700
     45 H061       -26.5770   -15.7690    16.4420 h1         1 YUZ       0.059700
     46 H071       -28.6160   -13.7360    17.4730 hc         1 YUZ       0.060700
     47 H072       -28.2440   -15.2710    18.2390 hc         1 YUZ       0.060700
     48 H081       -25.8920   -14.5690    18.5700 h1         1 YUZ       0.033200
     49 H082       -26.2230   -13.0260    17.8030 h1         1 YUZ       0.033200
     50 H251       -22.9240   -12.7400     7.1760 ha         1 YUZ       0.121000
     51 H261       -21.5650   -13.2850     5.2120 ha         1 YUZ       0.110000
     52 H281       -19.2490   -13.6060     4.3290 h1         1 YUZ       0.097700
     53 H282       -17.9030   -12.6530     4.9580 h1         1 YUZ       0.097700
     54 H303       -19.2750    -9.5740     4.6930 h1         1 YUZ       0.106700
     55 H301       -17.5950    -9.9860     4.2260 h1         1 YUZ       0.106700
     56 H302       -18.7050    -9.2520     3.0400 h1         1 YUZ       0.106700
     57 H351       -19.6010   -10.6270     8.8750 ha         1 YUZ       0.152000
     58 H091       -26.3580   -12.9650    20.2240 hn         1 YUZ       0.392500
     59 H092       -27.7890   -12.5960    19.5810 hn         1 YUZ       0.392500
     60 H181       -23.4010    -9.8540    11.8710 hn         1 YUZ       0.369000
     61 C06        -27.3920   -15.0580    16.3020 c3         1 YUZ       0.090600
@<TRIPOS>BOND
     1     1     6 2   
     2     1     8 1   
     3     1    17 1   
     4     2     6 1   
     5     2    30 1   
     6     2    31 1   
     7     3     5 ar  
     8     3     7 ar  
     9     3    12 1   
    10     4    13 1   
    11     4    28 2   
    12     4    35 1   
    13     5    10 ar  
    14     5    36 1   
    15     6    29 1   
    16     7     8 ar  
    17     7    29 1   
    18     8     9 ar  
    19     9    10 ar  
    20     9    37 1   
    21    10    38 1   
    22    11    12 1   
    23    11    39 1   
    24    11    40 1   
    25    11    41 1   
    26    12    13 1   
    27    12    42 1   
    28    13    14 2   
    29    14    26 1   
    30    14    43 1   
    31    15    16 1   
    32    15    46 1   
    33    15    47 1   
    34    15    61 1   
    35    16    27 1   
    36    16    48 1   
    37    16    49 1   
    38    17    18 ar  
    39    17    24 ar  
    40    18    19 ar  
    41    18    50 1   
    42    19    20 ar  
    43    19    51 1   
    44    20    21 1   
    45    20    23 ar  
    46    21    34 1   
    47    21    52 1   
    48    21    53 1   
    49    22    34 1   
    50    22    54 1   
    51    22    55 1   
    52    22    56 1   
    53    23    24 ar  
    54    23    25 1   
    55    24    57 1   
    56    26    28 1   
    57    26    61 1   
    58    27    58 1   
    59    27    59 1   
    60    29    60 1   
    61    32    34 2   
    62    33    34 2   
    63    44    61 1   
    64    45    61 1   
@<TRIPOS>SUBSTRUCTURE
     1 YUZ         1 TEMP              0 ****  ****    0 ROOT
