@<TRIPOS>MOLECULE
YV1
   56    60     1     0     0
SMALL
No Charge or Current Charge


@<TRIPOS>ATOM
      1 C02        -15.3440    10.3650    48.5020 c3         1 YV1       0.108000
      2 C04        -13.6920    10.3770    46.5890 c3         1 YV1       0.108000
      3 C05        -12.3230    10.6730    47.2300 c3         1 YV1      -0.093400
      4 C06        -13.6090    12.2470    48.9790 c5         1 YV1      -0.076200
      5 C07        -12.2820    11.8410    48.2570 c5         1 YV1      -0.076200
      6 N09        -11.8260    12.4940    50.5000 n          1 YV1      -0.409800
      7 C10        -13.0420    13.2060    50.0620 c5         1 YV1       0.101500
      8 O14        -15.3200     7.5200    48.2190 o          1 YV1      -0.539000
      9 C16        -13.6870     6.2250    46.4490 c3         1 YV1       0.224900
     10 C17        -12.6520     5.8830    45.3850 ca         1 YV1      -0.074300
     11 C18        -11.2940     6.1940    45.5960 ca         1 YV1      -0.090500
     12 C19        -10.3360     5.8870    44.6150 ca         1 YV1       0.124000
     13 C20        -10.7240     5.2670    43.4180 ca         1 YV1      -0.094000
     14 C21        -12.0760     4.9550    43.2020 ca         1 YV1       0.124000
     15 C22        -13.0380     5.2610    44.1790 ca         1 YV1      -0.090500
     16 C25        -11.0010    13.0150    51.5180 c          1 YV1       0.617700
     17 C26         -9.8630    12.1730    52.0400 ca         1 YV1      -0.174600
     18 C28         -9.9560    10.7550    52.1370 ca         1 YV1      -0.054000
     19 N01        -14.5610     9.6010    47.5070 n          1 YV1      -0.392800
     20 C03        -14.4760    11.0900    49.5540 c3         1 YV1      -0.093400
     21 C08        -11.3140    11.5830    49.4510 c5         1 YV1       0.101500
     22 O15        -13.7610     7.6560    46.5530 os         1 YV1      -0.458100
     23 Cl23       -12.5670     4.1800    41.7020 cl         1 YV1      -0.189500
     24 Cl24        -8.6440     6.2840    44.8890 cl         1 YV1      -0.189500
     25 O27        -11.2450    14.1060    52.0200 o          1 YV1      -0.594100
     26 C29         -8.8790     9.9970    52.6440 ca         1 YV1      -0.122000
     27 C30         -8.6900    12.8240    52.4990 ca         1 YV1       0.025000
     28 C31         -7.6380    12.0410    52.9960 ca         1 YV1       0.000400
     29 C32         -7.7360    10.6910    53.0540 ca         1 YV1      -0.066200
     30 N33         -6.5630    10.2400    53.5840 na         1 YV1      -0.070400
     31 N34         -5.7500    11.3390    53.8430 nc         1 YV1      -0.157400
     32 N35         -6.4050    12.4440    53.4840 nd         1 YV1      -0.212400
     33 H37        -15.9600    11.1030    47.9720 h1         1 YV1       0.062450
     34 H36        -16.0390     9.6970    49.0270 h1         1 YV1       0.062450
     35 H41        -13.5450     9.8280    45.6500 h1         1 YV1       0.062450
     36 H40        -14.1850    11.3210    46.3210 h1         1 YV1       0.062450
     37 H42        -11.9610     9.7450    47.6890 hc         1 YV1       0.055200
     38 H43        -11.6100    10.8910    46.4240 hc         1 YV1       0.055200
     39 H11        -14.2630    12.8140    48.3060 hc         1 YV1       0.058200
     40 H12        -11.9250    12.7130    47.6940 hc         1 YV1       0.058200
     41 H47        -12.7820    14.1840    49.6340 h1         1 YV1       0.054700
     42 H46        -13.7470    13.3690    50.8870 h1         1 YV1       0.054700
     43 H48        -13.3810     5.7800    47.4050 h1         1 YV1       0.063200
     44 H49        -14.6630     5.8040    46.1740 h1         1 YV1       0.063200
     45 H50        -10.9820     6.6790    46.5180 ha         1 YV1       0.138000
     46 H51         -9.9820     5.0300    42.6600 ha         1 YV1       0.147000
     47 H52        -14.0820     5.0170    43.9970 ha         1 YV1       0.138000
     48 H53        -10.8700    10.2400    51.8550 ha         1 YV1       0.123000
     49 H38        -15.1600    11.4990    50.3080 hc         1 YV1       0.055200
     50 H39        -13.8530    10.3560    50.0780 hc         1 YV1       0.055200
     51 H44        -11.3790    10.5390    49.7780 h1         1 YV1       0.054700
     52 H45        -10.2700    11.7970    49.1850 h1         1 YV1       0.054700
     53 H54         -8.9430     8.9130    52.7230 ha         1 YV1       0.128000
     54 H55         -8.5940    13.9070    52.4600 ha         1 YV1       0.151000
     55 H56         -6.2770     9.2850    53.7780 hn         1 YV1       0.384000
     56 C13        -14.6090     8.1890    47.4830 c          1 YV1       0.638100
@<TRIPOS>BOND
     1     1    19 1   
     2     1    20 1   
     3     1    33 1   
     4     1    34 1   
     5     2     3 1   
     6     2    19 1   
     7     2    35 1   
     8     2    36 1   
     9     3     5 1   
    10     3    37 1   
    11     3    38 1   
    12     4     5 1   
    13     4     7 1   
    14     4    20 1   
    15     4    39 1   
    16     5    21 1   
    17     5    40 1   
    18     6     7 1   
    19     6    16 1   
    20     6    21 1   
    21     7    41 1   
    22     7    42 1   
    23     8    56 2   
    24     9    10 1   
    25     9    22 1   
    26     9    43 1   
    27     9    44 1   
    28    10    11 ar  
    29    10    15 ar  
    30    11    12 ar  
    31    11    45 1   
    32    12    13 ar  
    33    12    24 1   
    34    13    14 ar  
    35    13    46 1   
    36    14    15 ar  
    37    14    23 1   
    38    15    47 1   
    39    16    17 1   
    40    16    25 2   
    41    17    18 ar  
    42    17    27 ar  
    43    18    26 ar  
    44    18    48 1   
    45    19    56 1   
    46    20    49 1   
    47    20    50 1   
    48    21    51 1   
    49    21    52 1   
    50    22    56 1   
    51    26    29 ar  
    52    26    53 1   
    53    27    28 ar  
    54    27    54 1   
    55    28    29 ar  
    56    28    32 1   
    57    29    30 1   
    58    30    31 1   
    59    30    55 1   
    60    31    32 2   
@<TRIPOS>SUBSTRUCTURE
     1 YV1         1 TEMP              0 ****  ****    0 ROOT
