@<TRIPOS>MOLECULE
YV1
   56    60     1     0     0
SMALL
bcc


@<TRIPOS>ATOM
      1 C02        -15.3230    10.3020    48.2730 c3         1 YV1       0.108000
      2 C04        -13.4840    10.3290    46.6170 c3         1 YV1       0.108000
      3 C05        -12.2190    10.5500    47.4430 c3         1 YV1      -0.093400
      4 C06        -13.6540    12.0610    49.0750 c5         1 YV1      -0.076200
      5 C07        -12.2890    11.6850    48.4690 c5         1 YV1      -0.076200
      6 N09        -11.9490    12.3450    50.6940 n          1 YV1      -0.476800
      7 C10        -13.2340    12.9020    50.2830 c5         1 YV1       0.101500
      8 O14        -15.2370     7.5430    48.0730 o          1 YV1      -0.588000
      9 C16        -13.5910     6.2630    46.4580 c3         1 YV1       0.201700
     10 C17        -12.6110     5.8570    45.3950 ca         1 YV1      -0.074300
     11 C18        -11.9350     4.6520    45.5420 ca         1 YV1      -0.108500
     12 C19        -11.0790     4.2210    44.5430 ca         1 YV1       0.032400
     13 C20        -10.8640     4.9680    43.3970 ca         1 YV1      -0.112000
     14 C21        -11.5460     6.1690    43.2760 ca         1 YV1       0.032400
     15 C22        -12.4170     6.6240    44.2520 ca         1 YV1      -0.108500
     16 C25        -11.2750    12.8940    51.7150 c          1 YV1       0.684700
     17 C26         -9.9550    12.2890    52.0810 ca         1 YV1      -0.174600
     18 C28         -9.8140    10.8930    52.2700 ca         1 YV1      -0.072000
     19 N01        -14.4990     9.5690    47.3320 n          1 YV1      -0.459800
     20 C03        -14.5520    10.8840    49.4540 c3         1 YV1      -0.093400
     21 C08        -11.4360    11.4070    49.7050 c5         1 YV1       0.101500
     22 O15        -13.5950     7.6790    46.5530 os         1 YV1      -0.434900
     23 CL23       -11.3000     7.1250    41.8550 cl         1 YV1      -0.097900
     24 CL24       -10.2450     2.7180    44.7330 cl         1 YV1      -0.097900
     25 O27        -11.7040    13.8580    52.3380 o          1 YV1      -0.594100
     26 C29         -8.6260    10.3200    52.6590 ca         1 YV1      -0.140000
     27 C30         -8.8950    13.1430    52.3020 ca         1 YV1       0.007000
     28 C31         -7.6760    12.5740    52.6750 ca         1 YV1       0.000400
     29 C32         -7.5530    11.1930    52.8480 ca         1 YV1      -0.066200
     30 N33         -6.2600    11.0450    53.2060 na         1 YV1      -0.020100
     31 N34         -5.6440    12.2190    53.2510 nc         1 YV1      -0.157400
     32 N35         -6.4630    13.1460    52.9390 nd         1 YV1      -0.212400
     33 H37        -15.8150    11.1150    47.7300 h1         1 YV1       0.062450
     34 H36        -16.1090     9.6450    48.6350 h1         1 YV1       0.062450
     35 H41        -13.2370     9.8230    45.6870 h1         1 YV1       0.062450
     36 H40        -13.9330    11.2840    46.3330 h1         1 YV1       0.062450
     37 H42        -11.9630     9.6080    47.9360 hc         1 YV1       0.055200
     38 H43        -11.3920    10.7550    46.7590 hc         1 YV1       0.055200
     39 H11        -14.2120    12.7000    48.3850 hc         1 YV1       0.058200
     40 H12        -11.9060    12.5960    47.9960 hc         1 YV1       0.058200
     41 H47        -13.1160    13.9530    50.0040 h1         1 YV1       0.054700
     42 H46        -13.9590    12.8600    51.0980 h1         1 YV1       0.054700
     43 H48        -13.3170     5.8100    47.4140 h1         1 YV1       0.063200
     44 H49        -14.5870     5.8950    46.1940 h1         1 YV1       0.063200
     45 H50        -12.0730     4.0530    46.4330 ha         1 YV1       0.156000
     46 H51        -10.1880     4.6290    42.6240 ha         1 YV1       0.165000
     47 H52        -12.9350     7.5630    44.1150 ha         1 YV1       0.156000
     48 H53        -10.6730    10.2500    52.1290 ha         1 YV1       0.141000
     49 H38        -15.2970    11.2350    50.1740 hc         1 YV1       0.055200
     50 H39        -13.9890    10.0920    49.9580 hc         1 YV1       0.055200
     51 H44        -11.5760    10.3710    50.0290 h1         1 YV1       0.054700
     52 H45        -10.3720    11.5570    49.5200 h1         1 YV1       0.054700
     53 H54         -8.5370     9.2540    52.8140 ha         1 YV1       0.146000
     54 H55         -8.9960    14.2140    52.1810 ha         1 YV1       0.169000
     55 H56         -5.7490    10.2020    53.4280 hn         1 YV1       0.333700
     56 C13        -14.5010     8.2200    47.3820 c          1 YV1       0.754100
@<TRIPOS>BOND
     1     1    19 1   
     2     1    20 1   
     3     1    33 1   
     4     1    34 1   
     5     2     3 1   
     6     2    19 1   
     7     2    35 1   
     8     2    36 1   
     9     3     5 1   
    10     3    37 1   
    11     3    38 1   
    12     4     5 1   
    13     4     7 1   
    14     4    20 1   
    15     4    39 1   
    16     5    21 1   
    17     5    40 1   
    18     6     7 1   
    19     6    16 1   
    20     6    21 1   
    21     7    41 1   
    22     7    42 1   
    23     8    56 2   
    24     9    10 1   
    25     9    22 1   
    26     9    43 1   
    27     9    44 1   
    28    10    11 ar  
    29    10    15 ar  
    30    11    12 ar  
    31    11    45 1   
    32    12    13 ar  
    33    12    24 1   
    34    13    14 ar  
    35    13    46 1   
    36    14    15 ar  
    37    14    23 1   
    38    15    47 1   
    39    16    17 1   
    40    16    25 2   
    41    17    18 ar  
    42    17    27 ar  
    43    18    26 ar  
    44    18    48 1   
    45    19    56 1   
    46    20    49 1   
    47    20    50 1   
    48    21    51 1   
    49    21    52 1   
    50    22    56 1   
    51    26    29 ar  
    52    26    53 1   
    53    27    28 ar  
    54    27    54 1   
    55    28    29 ar  
    56    28    32 1   
    57    29    30 1   
    58    30    31 1   
    59    30    55 1   
    60    31    32 2   
@<TRIPOS>SUBSTRUCTURE
     1 YV1         1 TEMP              0 ****  ****    0 ROOT
