@<TRIPOS>MOLECULE
YV3
   66    69     1     0     0
SMALL
abcg2


@<TRIPOS>ATOM
      1 C13        -20.2860   -11.2290     6.5730 ca         1 YV3       0.166000
      2 C12        -20.6580   -10.8610     7.8470 ca         1 YV3      -0.108000
      3 C11        -21.2190   -11.8110     8.6990 ca         1 YV3       0.097200
      4 C15        -20.4360   -12.5160     6.0780 ca         1 YV3      -0.164300
      5 C10        -21.6180   -11.4840    10.0690 cc         1 YV3      -0.157400
      6 C01        -22.0020   -11.8960    16.1780 c3         1 YV3      -0.099100
      7 C02        -22.4420   -11.4770    14.7840 c3         1 YV3       0.190000
      8 C03        -21.7110   -12.1450    13.6420 ca         1 YV3      -0.124300
      9 C04        -21.8420   -11.6400    12.3410 ca         1 YV3      -0.051200
     10 C06        -22.3890   -10.4380    10.5290 cd         1 YV3      -0.054300
     11 C07        -23.1300    -9.3110     9.8420 c          1 YV3       0.722200
     12 C18        -21.9340   -11.1500     3.4290 c3         1 YV3      -0.324100
     13 C21        -20.9810   -13.4600     6.9440 ca         1 YV3      -0.067000
     14 C22        -21.3630   -13.1190     8.2290 ca         1 YV3      -0.134000
     15 C23        -21.2490   -12.2580    11.2200 ca         1 YV3      -0.085800
     16 C24        -20.4500   -13.3910    11.4120 ca         1 YV3      -0.063000
     17 C25        -20.2870   -13.8770    12.6930 ca         1 YV3      -0.162000
     18 C26        -20.9190   -13.2670    13.7880 ca         1 YV3      -0.079000
     19 C28        -24.7610   -10.6170    14.3960 c          1 YV3       0.557000
     20 C30        -26.1240   -11.2440    14.2390 c5         1 YV3       0.004000
     21 C33        -27.5030   -13.8320    15.7360 c3         1 YV3      -0.106400
     22 C34        -28.5650   -14.9230    15.7350 c3         1 YV3      -0.076400
     23 C35        -29.2250   -15.0950    17.0940 c3         1 YV3       0.148800
     24 C37        -24.5370   -12.8830    14.5920 c          1 YV3       0.620000
     25 F14        -19.7540   -10.2880     5.7710 f          1 YV3      -0.200000
     26 N05        -22.5130   -10.5490    11.8850 na         1 YV3      -0.198700
     27 N27        -23.8860   -11.6390    14.6070 n          1 YV3      -0.386400
     28 N31        -25.8380   -12.6490    14.3300 n          1 YV3      -0.423800
     29 N36        -30.2110   -16.1660    17.0630 n8         1 YV3      -0.995200
     30 O08        -23.6280    -8.4710    10.6180 o          1 YV3      -0.697000
     31 O09        -23.1810    -9.3390     8.6030 o          1 YV3      -0.697000
     32 O19        -21.0180   -13.3330     2.2620 o          1 YV3      -0.535000
     33 O20        -22.5920   -13.5770     4.2030 o          1 YV3      -0.535000
     34 O29        -24.4910    -9.4380    14.3320 o          1 YV3      -0.502000
     35 O38        -24.0000   -13.9510    14.7800 o          1 YV3      -0.544000
     36 S17        -21.4850   -12.8670     3.5670 s6         1 YV3       1.061000
     37 H121       -20.5090    -9.8420     8.1760 ha         1 YV3       0.152000
     38 H162       -19.7050   -13.9180     4.6280 h1         1 YV3       0.096700
     39 H161       -19.3030   -12.2440     4.2390 h1         1 YV3       0.096700
     40 H011       -22.5580   -11.3290    16.9240 hc         1 YV3       0.043033
     41 H012       -22.1600   -12.9560    16.3660 hc         1 YV3       0.043033
     42 H013       -20.9430   -11.6780    16.3110 hc         1 YV3       0.043033
     43 H021       -22.2750   -10.3990    14.7060 h1         1 YV3       0.075700
     44 H182       -22.2530   -10.7690     4.3960 h1         1 YV3       0.106367
     45 H183       -21.0910   -10.5780     3.0460 h1         1 YV3       0.106367
     46 H181       -22.7650   -11.1020     2.7270 h1         1 YV3       0.106367
     47 H211       -21.1080   -14.4780     6.6010 ha         1 YV3       0.109000
     48 H221       -21.8020   -13.8740     8.8680 ha         1 YV3       0.121000
     49 H241       -19.9630   -13.8770    10.5760 ha         1 YV3       0.106000
     50 H251       -19.6710   -14.7500    12.8620 ha         1 YV3       0.095000
     51 H261       -20.7810   -13.7000    14.7700 ha         1 YV3       0.099000
     52 H302       -26.7950   -10.8950    15.0290 h1         1 YV3       0.080700
     53 H301       -26.5610   -10.9680    13.2750 h1         1 YV3       0.080700
     54 H322       -27.6170   -13.4110    13.6200 h1         1 YV3       0.062200
     55 H321       -26.4130   -14.6100    14.0430 h1         1 YV3       0.062200
     56 H332       -26.7270   -14.0710    16.4690 hc         1 YV3       0.044700
     57 H331       -27.9480   -12.8820    16.0480 hc         1 YV3       0.044700
     58 H342       -29.3310   -14.6870    14.9870 hc         1 YV3       0.048200
     59 H341       -28.1190   -15.8750    15.4320 hc         1 YV3       0.048200
     60 H351       -28.4590   -15.3580    17.8290 h1         1 YV3       0.026700
     61 H352       -29.6370   -14.1270    17.4130 h1         1 YV3       0.026700
     62 H051       -23.0180    -9.8610    12.4220 hn         1 YV3       0.379000
     63 H1         -30.6080   -16.2850    17.9860 hn         1 YV3       0.389000
     64 H362       -30.9850   -15.8880    16.4710 hn         1 YV3       0.389000
     65 C16        -20.0630   -12.8870     4.6840 c3         1 YV3      -0.198100
     66 C32        -26.8600   -13.6690    14.3640 c3         1 YV3       0.125000
@<TRIPOS>BOND
     1     1     2 ar  
     2     1     4 ar  
     3     1    25 1   
     4     2     3 ar  
     5     2    37 1   
     6     3     5 1   
     7     3    14 ar  
     8     4    13 ar  
     9     4    65 1   
    10     5    10 2   
    11     5    15 1   
    12     6     7 1   
    13     6    40 1   
    14     6    41 1   
    15     6    42 1   
    16     7     8 1   
    17     7    27 1   
    18     7    43 1   
    19     8     9 ar  
    20     8    18 ar  
    21     9    15 ar  
    22     9    26 1   
    23    10    11 1   
    24    10    26 1   
    25    11    30 1   
    26    11    31 1   
    27    12    36 1   
    28    12    44 1   
    29    12    45 1   
    30    12    46 1   
    31    13    14 ar  
    32    13    47 1   
    33    14    48 1   
    34    15    16 ar  
    35    16    17 ar  
    36    16    49 1   
    37    17    18 ar  
    38    17    50 1   
    39    18    51 1   
    40    19    20 1   
    41    19    27 1   
    42    19    34 2   
    43    20    28 1   
    44    20    52 1   
    45    20    53 1   
    46    21    22 1   
    47    21    56 1   
    48    21    57 1   
    49    21    66 1   
    50    22    23 1   
    51    22    58 1   
    52    22    59 1   
    53    23    29 1   
    54    23    60 1   
    55    23    61 1   
    56    24    27 1   
    57    24    28 1   
    58    24    35 2   
    59    26    62 1   
    60    28    66 1   
    61    29    63 1   
    62    29    64 1   
    63    32    36 2   
    64    33    36 2   
    65    36    65 1   
    66    38    65 1   
    67    39    65 1   
    68    54    66 1   
    69    55    66 1   
@<TRIPOS>SUBSTRUCTURE
     1 YV3         1 TEMP              0 ****  ****    0 ROOT
