@<TRIPOS>MOLECULE
YV3
   66    69     1     0     0
SMALL
No Charge or Current Charge


@<TRIPOS>ATOM
      1 C13        -20.0570   -11.4320     6.5870 ca         1 YV3       0.166000
      2 C12        -20.4580   -11.0820     7.8850 ca         1 YV3      -0.108000
      3 C11        -21.2950   -11.9370     8.6220 ca         1 YV3       0.097200
      4 C15        -20.4780   -12.6480     6.0080 ca         1 YV3      -0.164300
      5 C10        -21.6870   -11.6010     9.9870 cc         1 YV3      -0.157400
      6 C01        -21.8760   -11.5700    16.1050 c3         1 YV3      -0.099100
      7 C02        -22.4740   -11.3400    14.7000 c3         1 YV3       0.190000
      8 C03        -21.7820   -12.0940    13.5540 ca         1 YV3      -0.124300
      9 C04        -21.9300   -11.6500    12.2240 ca         1 YV3      -0.051200
     10 C06        -22.5200   -10.5330    10.3450 cd         1 YV3      -0.054300
     11 C07        -23.1960    -9.5380     9.4380 c          1 YV3       0.722200
     12 C18        -21.5220   -10.8750     3.4410 c3         1 YV3      -0.324100
     13 C21        -21.3020   -13.5110     6.7550 ca         1 YV3      -0.067000
     14 C22        -21.7030   -13.1570     8.0550 ca         1 YV3      -0.134000
     15 C23        -21.3360   -12.3040    11.1820 ca         1 YV3      -0.085800
     16 C24        -20.5440   -13.4430    11.3630 ca         1 YV3      -0.063000
     17 C25        -20.3720   -13.9160    12.6780 ca         1 YV3      -0.162000
     18 C26        -20.9860   -13.2510    13.7640 ca         1 YV3      -0.079000
     19 C28        -24.8160   -10.4280    14.6690 c          1 YV3       0.557000
     20 C30        -26.2150   -11.0860    14.6220 c5         1 YV3       0.004000
     21 C33        -27.5600   -13.9070    15.9260 c3         1 YV3      -0.106400
     22 C34        -28.6010   -15.0480    15.8840 c3         1 YV3      -0.076400
     23 C35        -29.2400   -15.3270    17.2600 c3         1 YV3       0.148800
     24 C37        -24.5550   -12.7570    14.6600 c          1 YV3       0.620000
     25 F14        -19.2560   -10.5900     5.8970 f          1 YV3      -0.200000
     26 N05        -22.6520   -10.5540    11.7600 na         1 YV3      -0.198700
     27 N27        -23.9440   -11.5140    14.7060 n          1 YV3      -0.386400
     28 N31        -25.9270   -12.5370    14.6110 n          1 YV3      -0.423800
     29 N36        -30.2260   -16.4200    17.1870 n8         1 YV3      -0.995200
     30 O08        -23.8790    -8.6730     9.9700 o          1 YV3      -0.697000
     31 O09        -23.0720    -9.6170     8.2250 o          1 YV3      -0.697000
     32 O19        -20.5760   -12.8620     1.9850 o          1 YV3      -0.535000
     33 O20        -22.5010   -13.3240     3.5660 o          1 YV3      -0.535000
     34 O29        -24.5030    -9.2460    14.6480 o          1 YV3      -0.502000
     35 O38        -24.0090   -13.8490    14.6860 o          1 YV3      -0.544000
     36 S17        -21.2340   -12.6370     3.2790 s6         1 YV3       1.061000
     37 H121       -20.1200   -10.1460     8.3190 ha         1 YV3       0.152000
     38 H162       -19.8990   -14.1300     4.5260 h1         1 YV3       0.096700
     39 H161       -19.1120   -12.5540     4.3130 h1         1 YV3       0.096700
     40 H011       -22.3270   -10.8790    16.8270 hc         1 YV3       0.043033
     41 H012       -22.0630   -12.5920    16.4530 hc         1 YV3       0.043033
     42 H013       -20.7940   -11.3940    16.0970 hc         1 YV3       0.043033
     43 H021       -22.2730   -10.2810    14.4950 h1         1 YV3       0.075700
     44 H182       -21.9610   -10.6990     4.4280 h1         1 YV3       0.106367
     45 H183       -20.5570   -10.3690     3.3400 h1         1 YV3       0.106367
     46 H181       -22.2110   -10.5780     2.6430 h1         1 YV3       0.106367
     47 H211       -21.6330   -14.4570     6.3310 ha         1 YV3       0.109000
     48 H221       -22.3360   -13.8310     8.6270 ha         1 YV3       0.121000
     49 H241       -20.0780   -13.9460    10.5180 ha         1 YV3       0.106000
     50 H251       -19.7670   -14.8010    12.8580 ha         1 YV3       0.095000
     51 H261       -20.8420   -13.6510    14.7640 ha         1 YV3       0.099000
     52 H302       -26.7830   -10.7850    15.5100 h1         1 YV3       0.080700
     53 H301       -26.7360   -10.7610    13.7130 h1         1 YV3       0.080700
     54 H322       -27.7000   -13.3480    13.8370 h1         1 YV3       0.062200
     55 H321       -26.4370   -14.5410    14.1800 h1         1 YV3       0.062200
     56 H332       -26.7700   -14.1630    16.6440 hc         1 YV3       0.044700
     57 H331       -28.0410   -12.9910    16.2910 hc         1 YV3       0.044700
     58 H342       -29.3870   -14.7900    15.1640 hc         1 YV3       0.048200
     59 H341       -28.1160   -15.9630    15.5190 hc         1 YV3       0.048200
     60 H351       -28.4590   -15.6050    17.9810 h1         1 YV3       0.026700
     61 H352       -29.7440   -14.4210    17.6250 h1         1 YV3       0.026700
     62 H051       -23.1890    -9.8920    12.3100 hn         1 YV3       0.379000
     63 H1         -30.6690   -16.5320    18.1070 hn         1 YV3       0.389000
     64 H362       -31.0010   -16.1300    16.5800 hn         1 YV3       0.389000
     65 C16        -20.0490   -13.0470     4.5900 c3         1 YV3      -0.198100
     66 C32        -26.9170   -13.6260    14.5540 c3         1 YV3       0.125000
@<TRIPOS>BOND
     1     1     2 ar  
     2     1     4 ar  
     3     1    25 1   
     4     2     3 ar  
     5     2    37 1   
     6     3     5 1   
     7     3    14 ar  
     8     4    13 ar  
     9     4    65 1   
    10     5    10 2   
    11     5    15 1   
    12     6     7 1   
    13     6    40 1   
    14     6    41 1   
    15     6    42 1   
    16     7     8 1   
    17     7    27 1   
    18     7    43 1   
    19     8     9 ar  
    20     8    18 ar  
    21     9    15 ar  
    22     9    26 1   
    23    10    11 1   
    24    10    26 1   
    25    11    30 1   
    26    11    31 1   
    27    12    36 1   
    28    12    44 1   
    29    12    45 1   
    30    12    46 1   
    31    13    14 ar  
    32    13    47 1   
    33    14    48 1   
    34    15    16 ar  
    35    16    17 ar  
    36    16    49 1   
    37    17    18 ar  
    38    17    50 1   
    39    18    51 1   
    40    19    20 1   
    41    19    27 1   
    42    19    34 2   
    43    20    28 1   
    44    20    52 1   
    45    20    53 1   
    46    21    22 1   
    47    21    56 1   
    48    21    57 1   
    49    21    66 1   
    50    22    23 1   
    51    22    58 1   
    52    22    59 1   
    53    23    29 1   
    54    23    60 1   
    55    23    61 1   
    56    24    27 1   
    57    24    28 1   
    58    24    35 2   
    59    26    62 1   
    60    28    66 1   
    61    29    63 1   
    62    29    64 1   
    63    32    36 2   
    64    33    36 2   
    65    36    65 1   
    66    38    65 1   
    67    39    65 1   
    68    54    66 1   
    69    55    66 1   
@<TRIPOS>SUBSTRUCTURE
     1 YV3         1 TEMP              0 ****  ****    0 ROOT
