@<TRIPOS>MOLECULE
YV4
   15    15     1     0     0
SMALL
abcg2


@<TRIPOS>ATOM
      1 N01          9.7140    21.6830   -33.2790 n8         1 YV4      -0.980200
      2 C02          9.0250    22.5210   -32.3270 c5         1 YV4       0.077500
      3 C03          9.7930    23.7800   -31.9390 c5         1 YV4      -0.089400
      4 C04          8.6990    24.7450   -31.4810 c5         1 YV4       0.098000
      5 N05          7.5580    24.3140   -32.2640 ns         1 YV4      -0.512900
      6 C06          7.6650    23.0730   -32.7650 c          1 YV4       0.518000
      7 O07          6.8350    22.4810   -33.4340 o          1 YV4      -0.557000
      8 H012         9.1480    20.8720   -33.4960 hn         1 YV4       0.408500
      9 H1           9.8340    22.1830   -34.1520 hn         1 YV4       0.408500
     10 H021         8.8340    21.9230   -31.4260 h1         1 YV4       0.082700
     11 H032        10.5450    23.6070   -31.1720 hc         1 YV4       0.063200
     12 H031        10.2980    24.1830   -32.8210 hc         1 YV4       0.063200
     13 H042         8.5020    24.6490   -30.4090 h1         1 YV4       0.046200
     14 H041         8.9420    25.7870   -31.6840 h1         1 YV4       0.046200
     15 H051         6.7040    24.8480   -32.3190 hn         1 YV4       0.327500
@<TRIPOS>BOND
     1     1     2 1   
     2     1     8 1   
     3     1     9 1   
     4     2     3 1   
     5     2     6 1   
     6     2    10 1   
     7     3     4 1   
     8     3    11 1   
     9     3    12 1   
    10     4     5 1   
    11     4    13 1   
    12     4    14 1   
    13     5     6 1   
    14     5    15 1   
    15     6     7 2   
@<TRIPOS>SUBSTRUCTURE
     1 YV4         1 TEMP              0 ****  ****    0 ROOT
