@<TRIPOS>MOLECULE
YV4
   15    15     1     0     0
SMALL
No Charge or Current Charge


@<TRIPOS>ATOM
      1 N01          9.7480    21.6310   -33.2690 n8         1 YV4      -0.980200
      2 C02          9.0270    22.5090   -32.2970 c5         1 YV4       0.077500
      3 C03          9.8090    23.8080   -31.9690 c5         1 YV4      -0.089400
      4 C04          8.6840    24.7440   -31.4400 c5         1 YV4       0.098000
      5 N05          7.5620    24.3440   -32.2880 ns         1 YV4      -0.512900
      6 C06          7.6280    23.0500   -32.7310 c          1 YV4       0.518000
      7 O07          6.7570    22.5100   -33.3980 o          1 YV4      -0.557000
      8 H012         9.1360    20.8460   -33.5310 hn         1 YV4       0.408500
      9 H1           9.8680    22.1340   -34.1580 hn         1 YV4       0.408500
     10 H021         8.8580    21.9340   -31.3740 h1         1 YV4       0.082700
     11 H032        10.6080    23.6540   -31.2350 hc         1 YV4       0.063200
     12 H031        10.2680    24.2360   -32.8690 hc         1 YV4       0.063200
     13 H042         8.4680    24.5520   -30.3800 h1         1 YV4       0.046200
     14 H041         8.9460    25.8050   -31.5520 h1         1 YV4       0.046200
     15 H051         6.7290    24.8910   -32.4770 hn         1 YV4       0.327500
@<TRIPOS>BOND
     1     1     2 1   
     2     1     8 1   
     3     1     9 1   
     4     2     3 1   
     5     2     6 1   
     6     2    10 1   
     7     3     4 1   
     8     3    11 1   
     9     3    12 1   
    10     4     5 1   
    11     4    13 1   
    12     4    14 1   
    13     5     6 1   
    14     5    15 1   
    15     6     7 2   
@<TRIPOS>SUBSTRUCTURE
     1 YV4         1 TEMP              0 ****  ****    0 ROOT
