@<TRIPOS>MOLECULE
YV6
   71    72     1     0     0
SMALL
No Charge or Current Charge


@<TRIPOS>ATOM
      1 C1         -13.9130    -9.5920   -33.7530 c3         1 YV6       0.151900
      2 C10        -19.8410    -5.0410   -34.5100 ca         1 YV6      -0.034300
      3 C11        -18.5410    -4.5190   -34.6600 ca         1 YV6      -0.143000
      4 C12        -18.2570    -3.1960   -34.2800 ca         1 YV6      -0.067000
      5 C13        -19.2700    -2.3890   -33.7350 ca         1 YV6      -0.200000
      6 C14        -20.5640    -2.9050   -33.5750 ca         1 YV6       0.140100
      7 C15        -20.8510    -4.2240   -33.9630 ca         1 YV6      -0.137000
      8 C16        -20.7950    -4.6270   -37.7310 c          1 YV6       0.586100
      9 C17        -22.0100    -3.8290   -38.2890 c3         1 YV6       0.035700
     10 C19        -22.0820    -0.0970   -37.2670 c3         1 YV6      -0.156400
     11 C2         -16.1860    -9.0070   -34.3310 c          1 YV6       0.595100
     12 C20        -21.7040     0.0580   -35.7760 c3         1 YV6      -0.056400
     13 C21        -21.1170     1.4350   -35.4200 c3         1 YV6       0.084600
     14 C27        -22.2890    -4.1320   -39.7960 c3         1 YV6      -0.061700
     15 C28        -23.4720    -3.3030   -40.3590 c3         1 YV6      -0.089100
     16 C29        -22.5160    -5.6400   -40.0710 c3         1 YV6      -0.089100
     17 C3         -17.5710    -9.5180   -34.8530 c6         1 YV6       0.086500
     18 C4         -17.6430   -11.0490   -35.1280 c6         1 YV6      -0.103400
     19 C5         -19.0630   -11.4580   -35.5990 c6         1 YV6      -0.098400
     20 C6         -19.5280   -10.6090   -36.8090 c6         1 YV6       0.076000
     21 C8         -20.1260    -6.7150   -36.4510 c3         1 YV6       0.051700
     22 C9         -20.1390    -6.4810   -34.9150 c3         1 YV6      -0.027100
     23 N1         -19.3580    -9.1530   -36.5440 n          1 YV6      -0.305200
     24 N2         -18.0200    -8.7890   -36.0800 n7         1 YV6      -0.587400
     25 N3         -21.1040    -5.8290   -37.1290 ns         1 YV6      -0.487900
     26 N4         -21.7520    -2.3870   -38.0710 ns         1 YV6      -0.506900
     27 O1         -15.2180    -9.9790   -34.2220 os         1 YV6      -0.443100
     28 O2         -15.9880    -7.8300   -34.0530 o          1 YV6      -0.467000
     29 O3         -21.4700    -8.5660   -37.2860 o          1 YV6      -0.593100
     30 O4         -21.5440    -2.1280   -33.0350 oh         1 YV6      -0.543100
     31 O5         -19.6430    -4.2180   -37.8070 o          1 YV6      -0.604100
     32 O6         -23.7980    -1.8020   -37.2530 o          1 YV6      -0.611100
     33 S1         -20.6340     1.5590   -33.6370 sh         1 YV6      -0.452800
     34 H1         -13.2470   -10.4630   -33.7150 h1         1 YV6       0.050700
     35 H2         -13.4610    -8.8470   -34.4210 h1         1 YV6       0.050700
     36 H3         -13.9700    -9.1640   -32.7430 h1         1 YV6       0.050700
     37 H4         -17.7500    -5.1400   -35.0750 ha         1 YV6       0.109000
     38 H5         -17.2510    -2.8000   -34.4040 ha         1 YV6       0.108000
     39 H6         -19.0410    -1.3680   -33.4390 ha         1 YV6       0.112000
     40 H7         -21.8580    -4.6110   -33.8340 ha         1 YV6       0.129000
     41 H8         -22.8870    -4.1260   -37.7000 h1         1 YV6       0.088700
     42 H9         -21.1790     0.0610   -37.8680 hc         1 YV6       0.059700
     43 H10        -22.8450     0.6490   -37.5180 hc         1 YV6       0.059700
     44 H11        -22.5890    -0.1240   -35.1540 hc         1 YV6       0.072700
     45 H12        -20.9680    -0.7130   -35.5170 hc         1 YV6       0.072700
     46 H13        -20.2270     1.6250   -36.0340 h1         1 YV6       0.054700
     47 H14        -21.8570     2.2170   -35.6370 h1         1 YV6       0.054700
     48 H15        -21.3950    -3.8360   -40.3600 hc         1 YV6       0.066700
     49 H16        -23.2660    -2.2280   -40.3050 hc         1 YV6       0.038367
     50 H17        -23.6510    -3.5500   -41.4130 hc         1 YV6       0.038367
     51 H18        -24.3920    -3.5080   -39.7990 hc         1 YV6       0.038367
     52 H19        -21.6220    -6.2280   -39.8310 hc         1 YV6       0.038367
     53 H20        -23.3550    -6.0240   -39.4780 hc         1 YV6       0.038367
     54 H21        -22.7420    -5.8100   -41.1300 hc         1 YV6       0.038367
     55 H22        -18.2720    -9.2930   -34.0360 h1         1 YV6       0.095700
     56 H23        -17.3830   -11.6090   -34.2180 hc         1 YV6       0.058700
     57 H24        -16.9060   -11.3290   -35.8930 hc         1 YV6       0.058700
     58 H25        -19.7740   -11.3260   -34.7720 hc         1 YV6       0.056700
     59 H26        -19.0830   -12.5250   -35.8600 hc         1 YV6       0.056700
     60 H27        -20.5770   -10.8490   -37.0330 h1         1 YV6       0.065700
     61 H28        -18.9360   -10.8790   -37.6950 h1         1 YV6       0.065700
     62 H29        -19.1210    -6.4920   -36.8280 h1         1 YV6       0.114700
     63 H30        -21.1150    -6.7910   -34.5220 hc         1 YV6       0.058700
     64 H31        -19.4070    -7.1410   -34.4380 hc         1 YV6       0.058700
     65 H32        -17.3380    -8.9070   -36.8460 hn         1 YV6       0.438000
     66 H33        -22.0760    -6.1180   -37.1460 hn         1 YV6       0.335500
     67 H34        -20.8120    -2.0440   -38.2360 hn         1 YV6       0.322500
     68 H35        -21.1600    -1.2490   -32.8320 ho         1 YV6       0.464000
     69 H36        -20.1880     2.8390   -33.6930 hs         1 YV6       0.206800
     70 C7         -20.3970    -8.2090   -36.8050 c          1 YV6       0.618100
     71 C18        -22.6460    -1.4970   -37.5220 c          1 YV6       0.604100
@<TRIPOS>BOND
     1     1    27 1   
     2     1    34 1   
     3     1    35 1   
     4     1    36 1   
     5     2     3 ar  
     6     2     7 ar  
     7     2    22 1   
     8     3     4 ar  
     9     3    37 1   
    10     4     5 ar  
    11     4    38 1   
    12     5     6 ar  
    13     5    39 1   
    14     6     7 ar  
    15     6    30 1   
    16     7    40 1   
    17     8     9 1   
    18     8    25 1   
    19     8    31 2   
    20     9    14 1   
    21     9    26 1   
    22     9    41 1   
    23    10    12 1   
    24    10    42 1   
    25    10    43 1   
    26    10    71 1   
    27    11    17 1   
    28    11    27 1   
    29    11    28 2   
    30    12    13 1   
    31    12    44 1   
    32    12    45 1   
    33    13    33 1   
    34    13    46 1   
    35    13    47 1   
    36    14    15 1   
    37    14    16 1   
    38    14    48 1   
    39    15    49 1   
    40    15    50 1   
    41    15    51 1   
    42    16    52 1   
    43    16    53 1   
    44    16    54 1   
    45    17    18 1   
    46    17    24 1   
    47    17    55 1   
    48    18    19 1   
    49    18    56 1   
    50    18    57 1   
    51    19    20 1   
    52    19    58 1   
    53    19    59 1   
    54    20    23 1   
    55    20    60 1   
    56    20    61 1   
    57    21    22 1   
    58    21    25 1   
    59    21    62 1   
    60    21    70 1   
    61    22    63 1   
    62    22    64 1   
    63    23    24 1   
    64    23    70 1   
    65    24    65 1   
    66    25    66 1   
    67    26    67 1   
    68    26    71 1   
    69    29    70 2   
    70    30    68 1   
    71    32    71 2   
    72    33    69 1   
@<TRIPOS>SUBSTRUCTURE
     1 YV6         1 TEMP              0 ****  ****    0 ROOT
