@<TRIPOS>MOLECULE
YV6
   71    72     1     0     0
SMALL
abcg2


@<TRIPOS>ATOM
      1 C1         -14.9480    -8.1970   -32.9120 c3         1 YV6       0.151900
      2 C10        -19.3840    -5.2230   -34.4560 ca         1 YV6      -0.034300
      3 C11        -18.4340    -5.5370   -33.4870 ca         1 YV6      -0.143000
      4 C12        -17.5320    -4.5740   -33.0570 ca         1 YV6      -0.067000
      5 C13        -17.5580    -3.2920   -33.5810 ca         1 YV6      -0.200000
      6 C14        -18.5070    -2.9710   -34.5500 ca         1 YV6       0.140100
      7 C15        -19.4160    -3.9340   -34.9800 ca         1 YV6      -0.137000
      8 C16        -21.1800    -5.0790   -38.2930 c          1 YV6       0.586100
      9 C17        -22.3100    -4.1280   -38.7010 c3         1 YV6       0.035700
     10 C19        -21.9810    -0.9840   -36.6000 c3         1 YV6      -0.156400
     11 C2         -16.4870    -8.3320   -34.6870 c          1 YV6       0.595100
     12 C20        -22.0540    -0.7330   -35.1010 c3         1 YV6      -0.056400
     13 C21        -21.5210     0.6480   -34.7570 c3         1 YV6       0.084600
     14 C27        -22.5350    -4.0900   -40.2130 c3         1 YV6      -0.061700
     15 C28        -23.5690    -3.0330   -40.5840 c3         1 YV6      -0.089100
     16 C29        -22.9890    -5.4630   -40.7030 c3         1 YV6      -0.089100
     17 C3         -17.8000    -8.9440   -35.1150 c6         1 YV6       0.086500
     18 C4         -17.6640   -10.4480   -35.3830 c6         1 YV6      -0.103400
     19 C5         -18.9980   -10.9850   -35.8900 c6         1 YV6      -0.098400
     20 C6         -19.5120   -10.1590   -37.0620 c6         1 YV6       0.076000
     21 C8         -20.3360    -6.4640   -36.4640 c3         1 YV6       0.051700
     22 C9         -20.3450    -6.2800   -34.9320 c3         1 YV6      -0.027100
     23 N1         -19.4950    -8.7460   -36.7220 n          1 YV6      -0.305200
     24 N2         -18.2900    -8.2190   -36.2790 n7         1 YV6      -0.587400
     25 N3         -21.3360    -5.6310   -37.0780 ns         1 YV6      -0.487900
     26 N4         -21.9770    -2.8280   -38.1560 ns         1 YV6      -0.506900
     27 O1         -16.1730    -8.6930   -33.4540 os         1 YV6      -0.443100
     28 O2         -15.8030    -7.6260   -35.3830 o          1 YV6      -0.467000
     29 O3         -21.6470    -8.3220   -37.2530 o          1 YV6      -0.593100
     30 O4         -18.5880    -1.7460   -35.1080 oh         1 YV6      -0.543100
     31 O5         -20.1860    -5.2470   -38.9810 o          1 YV6      -0.604100
     32 O6         -23.2520    -3.0000   -36.3010 o          1 YV6      -0.611100
     33 S1         -21.6300     0.8890   -32.9520 sh         1 YV6      -0.452800
     34 H1         -14.8740    -8.6150   -31.9130 h1         1 YV6       0.050700
     35 H2         -14.0910    -8.5170   -33.5040 h1         1 YV6       0.050700
     36 H3         -14.9580    -7.1090   -32.8490 h1         1 YV6       0.050700
     37 H4         -18.4020    -6.5340   -33.0650 ha         1 YV6       0.109000
     38 H5         -16.7940    -4.8250   -32.3050 ha         1 YV6       0.108000
     39 H6         -16.8480    -2.5460   -33.2420 ha         1 YV6       0.112000
     40 H7         -20.1440    -3.6650   -35.7350 ha         1 YV6       0.129000
     41 H8         -23.2440    -4.4430   -38.2280 h1         1 YV6       0.088700
     42 H9         -20.9600    -0.8350   -36.9600 hc         1 YV6       0.059700
     43 H10        -22.5980    -0.2520   -37.1330 hc         1 YV6       0.059700
     44 H11        -23.0860    -0.8250   -34.7580 hc         1 YV6       0.072700
     45 H12        -21.4730    -1.4900   -34.5700 hc         1 YV6       0.072700
     46 H13        -20.4810     0.7470   -35.0710 h1         1 YV6       0.054700
     47 H14        -22.1040     1.4210   -35.2600 h1         1 YV6       0.054700
     48 H15        -21.5870    -3.8400   -40.7000 hc         1 YV6       0.066700
     49 H16        -23.2490    -2.0260   -40.3160 hc         1 YV6       0.038367
     50 H17        -23.7510    -3.0450   -41.6590 hc         1 YV6       0.038367
     51 H18        -24.5220    -3.2250   -40.0860 hc         1 YV6       0.038367
     52 H19        -22.2640    -6.2480   -40.4900 hc         1 YV6       0.038367
     53 H20        -23.9360    -5.7450   -40.2360 hc         1 YV6       0.038367
     54 H21        -23.1460    -5.4490   -41.7820 hc         1 YV6       0.038367
     55 H22        -18.5240    -8.8020   -34.3070 h1         1 YV6       0.095700
     56 H23        -17.3620   -10.9730   -34.4760 hc         1 YV6       0.058700
     57 H24        -16.8820   -10.6120   -36.1320 hc         1 YV6       0.058700
     58 H25        -19.7330   -10.9630   -35.0800 hc         1 YV6       0.056700
     59 H26        -18.8940   -12.0250   -36.2020 hc         1 YV6       0.056700
     60 H27        -20.5240   -10.4490   -37.3330 h1         1 YV6       0.065700
     61 H28        -18.8740   -10.3140   -37.9390 h1         1 YV6       0.065700
     62 H29        -19.3640    -6.1560   -36.8450 h1         1 YV6       0.114700
     63 H30        -21.3630    -6.0420   -34.6080 hc         1 YV6       0.058700
     64 H31        -20.0990    -7.2200   -34.4400 hc         1 YV6       0.058700
     65 H32        -17.6130    -8.2680   -37.0370 hn         1 YV6       0.438000
     66 H33        -22.2110    -5.4980   -36.5960 hn         1 YV6       0.335500
     67 H34        -21.2760    -2.2840   -38.6380 hn         1 YV6       0.322500
     68 H35        -17.9260    -1.1560   -34.7300 ho         1 YV6       0.464000
     69 H36        -21.1280     2.1280   -32.9010 hs         1 YV6       0.206800
     70 C7         -20.5660    -7.9300   -36.8520 c          1 YV6       0.618100
     71 C18        -22.4650    -2.3650   -36.9870 c          1 YV6       0.604100
@<TRIPOS>BOND
     1     1    27 1   
     2     1    34 1   
     3     1    35 1   
     4     1    36 1   
     5     2     3 ar  
     6     2     7 ar  
     7     2    22 1   
     8     3     4 ar  
     9     3    37 1   
    10     4     5 ar  
    11     4    38 1   
    12     5     6 ar  
    13     5    39 1   
    14     6     7 ar  
    15     6    30 1   
    16     7    40 1   
    17     8     9 1   
    18     8    25 1   
    19     8    31 2   
    20     9    14 1   
    21     9    26 1   
    22     9    41 1   
    23    10    12 1   
    24    10    42 1   
    25    10    43 1   
    26    10    71 1   
    27    11    17 1   
    28    11    27 1   
    29    11    28 2   
    30    12    13 1   
    31    12    44 1   
    32    12    45 1   
    33    13    33 1   
    34    13    46 1   
    35    13    47 1   
    36    14    15 1   
    37    14    16 1   
    38    14    48 1   
    39    15    49 1   
    40    15    50 1   
    41    15    51 1   
    42    16    52 1   
    43    16    53 1   
    44    16    54 1   
    45    17    18 1   
    46    17    24 1   
    47    17    55 1   
    48    18    19 1   
    49    18    56 1   
    50    18    57 1   
    51    19    20 1   
    52    19    58 1   
    53    19    59 1   
    54    20    23 1   
    55    20    60 1   
    56    20    61 1   
    57    21    22 1   
    58    21    25 1   
    59    21    62 1   
    60    21    70 1   
    61    22    63 1   
    62    22    64 1   
    63    23    24 1   
    64    23    70 1   
    65    24    65 1   
    66    25    66 1   
    67    26    67 1   
    68    26    71 1   
    69    29    70 2   
    70    30    68 1   
    71    32    71 2   
    72    33    69 1   
@<TRIPOS>SUBSTRUCTURE
     1 YV6         1 TEMP              0 ****  ****    0 ROOT
