@<TRIPOS>MOLECULE
YV7
   76    78     1     0     0
SMALL
No Charge or Current Charge


@<TRIPOS>ATOM
      1 C10         -2.3340   -13.1190    -5.3850 c          1 YV7       0.563000
      2 C13         -5.5550   -17.1470    -5.2370 c3         1 YV7      -0.078400
      3 C15         -7.2000   -19.1840    -5.3530 c          1 YV7       0.603100
      4 C21        -10.0710   -18.6320    -6.4400 c3         1 YV7      -0.124100
      5 C22         -3.8220   -11.3660    -6.0100 c5         1 YV7       0.099000
      6 C24         -8.6580   -15.2350     3.0120 ca         1 YV7       0.178000
      7 C26         -7.0240   -15.3030     1.2130 ca         1 YV7      -0.081500
      8 C28         -9.3970   -15.5330     0.7150 ca         1 YV7      -0.081500
      9 C04         -7.3330   -14.3140    -1.9070 c3         1 YV7       0.035700
     10 C05         -7.7290   -15.6410    -1.2080 c3         1 YV7      -0.037100
     11 C07         -5.4160   -15.6200    -5.0220 c3         1 YV7       0.102700
     12 C08         -3.9690   -15.1220    -5.2600 c3         1 YV7      -0.073400
     13 C09         -3.7650   -13.5890    -5.0940 c5         1 YV7      -0.156700
     14 C18         -7.0470   -14.5490    -3.4170 c          1 YV7       0.587100
     15 C23         -4.6150   -12.7020    -6.0460 c5         1 YV7      -0.089400
     16 C25         -7.3240   -15.1790     2.5810 ca         1 YV7      -0.149000
     17 C27         -8.0580   -15.4830     0.2730 ca         1 YV7      -0.103300
     18 C29         -9.6950   -15.4080     2.0830 ca         1 YV7      -0.149000
     19 C31         -9.6220   -11.3280    -0.8050 c3         1 YV7       0.096500
     20 C33        -10.6060   -11.7310     0.3290 c3         1 YV7      -0.068100
     21 C34         -9.6740   -10.1440     4.2740 ca         1 YV7      -0.103000
     22 C35         -8.9650   -11.2480     3.7730 ca         1 YV7      -0.104000
     23 C36         -9.2630   -11.7550     2.4970 ca         1 YV7      -0.104500
     24 C37        -10.2700   -11.1640     1.7090 ca         1 YV7      -0.089300
     25 C38        -10.9820   -10.0600     2.2210 ca         1 YV7      -0.104500
     26 C39        -10.6830    -9.5510     3.4970 ca         1 YV7      -0.104000
     27 N02         -8.3870   -13.2880    -1.7310 ns         1 YV7      -0.493900
     28 N06         -5.8820   -15.2390    -3.6850 ns         1 YV7      -0.501900
     29 N11         -2.4530   -11.8710    -5.9330 ns         1 YV7      -0.514900
     30 N32         -9.3610    -9.8480    -0.7800 n8         1 YV7      -0.982200
     31 O03         -7.3580   -12.0450    -0.1220 o          1 YV7      -0.589100
     32 O12         -1.2890   -13.7490    -5.3790 o          1 YV7      -0.562000
     33 O16         -8.4290   -19.7120    -5.0130 os         1 YV7      -0.453100
     34 O17         -6.2590   -19.9180    -5.6110 o          1 YV7      -0.440000
     35 O19         -7.7930   -14.1600    -4.3070 o          1 YV7      -0.603100
     36 H131        -4.8840   -17.6730    -4.5460 hc         1 YV7       0.063200
     37 H1          -5.2180   -17.3900    -6.2520 hc         1 YV7       0.063200
     38 H201        -9.5120   -17.9780    -4.4270 h1         1 YV7       0.051700
     39 H202       -10.4350   -19.4780    -4.4940 h1         1 YV7       0.051700
     40 H213       -11.0120   -18.0700    -6.4460 hc         1 YV7       0.049367
     41 H212        -9.3230   -18.0450    -6.9840 hc         1 YV7       0.049367
     42 H211       -10.2330   -19.5720    -6.9790 hc         1 YV7       0.049367
     43 H222        -4.0780   -10.7700    -5.1230 h1         1 YV7       0.049700
     44 H221        -4.0040   -10.7550    -6.9040 h1         1 YV7       0.049700
     45 H261        -5.9880   -15.2620     0.8840 ha         1 YV7       0.115000
     46 H281       -10.2050   -15.6700    -0.0000 ha         1 YV7       0.115000
     47 H041        -6.3980   -13.9480    -1.4630 h1         1 YV7       0.079700
     48 H052        -8.5850   -16.0760    -1.7390 hc         1 YV7       0.061700
     49 H051        -6.9120   -16.3650    -1.3210 hc         1 YV7       0.061700
     50 H071        -6.0540   -15.1300    -5.7700 h1         1 YV7       0.080700
     51 H081        -3.6620   -15.4190    -6.2710 hc         1 YV7       0.060700
     52 H082        -3.2990   -15.6530    -4.5720 hc         1 YV7       0.060700
     53 H091        -3.9890   -13.2950    -4.0620 hc         1 YV7       0.087700
     54 H142        -7.7160   -17.0950    -5.6370 hc         1 YV7       0.066700
     55 H141        -7.3600   -17.5050    -4.0270 hc         1 YV7       0.066700
     56 H231        -5.6540   -12.5840    -5.7180 hc         1 YV7       0.063200
     57 H232        -4.6340   -13.1120    -7.0630 hc         1 YV7       0.063200
     58 H251        -6.5260   -15.0410     3.3070 ha         1 YV7       0.135500
     59 H291       -10.7270   -15.4450     2.4240 ha         1 YV7       0.135500
     60 H311       -10.1400   -11.5360    -1.7520 h1         1 YV7       0.069700
     61 H332       -11.6130   -11.4060     0.0380 hc         1 YV7       0.051700
     62 H331       -10.6620   -12.8250     0.3800 hc         1 YV7       0.051700
     63 H351        -8.1850   -11.7120     4.3730 ha         1 YV7       0.113000
     64 H361        -8.7090   -12.6100     2.1200 ha         1 YV7       0.109000
     65 H381       -11.7690    -9.5960     1.6310 ha         1 YV7       0.109000
     66 H391       -11.2360    -8.6970     3.8840 ha         1 YV7       0.113000
     67 H021        -9.2110   -13.3470    -2.3190 hn         1 YV7       0.320500
     68 H061        -5.3210   -15.5170    -2.8880 hn         1 YV7       0.313500
     69 H111        -1.6220   -11.4040    -6.2790 hn         1 YV7       0.325500
     70 H322       -10.2520    -9.3520    -0.6600 hn         1 YV7       0.409500
     71 H2          -8.8560    -9.6300     0.0880 hn         1 YV7       0.409500
     72 C14         -7.0020   -17.6800    -5.0480 c3         1 YV7      -0.185400
     73 F30         -8.9460   -15.1130     4.3260 f          1 YV7      -0.173000
     74 C01         -8.3460   -12.2530    -0.8170 c          1 YV7       0.613100
     75 H341        -9.4440    -9.7510     5.2610 ha         1 YV7       0.115000
     76 C20         -9.6330   -18.9130    -4.9880 c3         1 YV7       0.177600
@<TRIPOS>BOND
     1     1    13 1   
     2     1    29 1   
     3     1    32 2   
     4     2    11 1   
     5     2    36 1   
     6     2    37 1   
     7     2    72 1   
     8     3    33 1   
     9     3    34 2   
    10     3    72 1   
    11     4    40 1   
    12     4    41 1   
    13     4    42 1   
    14     4    76 1   
    15     5    15 1   
    16     5    29 1   
    17     5    43 1   
    18     5    44 1   
    19     6    16 ar  
    20     6    18 ar  
    21     6    73 1   
    22     7    16 ar  
    23     7    17 ar  
    24     7    45 1   
    25     8    17 ar  
    26     8    18 ar  
    27     8    46 1   
    28     9    10 1   
    29     9    14 1   
    30     9    27 1   
    31     9    47 1   
    32    10    17 1   
    33    10    48 1   
    34    10    49 1   
    35    11    12 1   
    36    11    28 1   
    37    11    50 1   
    38    12    13 1   
    39    12    51 1   
    40    12    52 1   
    41    13    15 1   
    42    13    53 1   
    43    14    28 1   
    44    14    35 2   
    45    15    56 1   
    46    15    57 1   
    47    16    58 1   
    48    18    59 1   
    49    19    20 1   
    50    19    30 1   
    51    19    60 1   
    52    19    74 1   
    53    20    24 1   
    54    20    61 1   
    55    20    62 1   
    56    21    22 ar  
    57    21    26 ar  
    58    21    75 1   
    59    22    23 ar  
    60    22    63 1   
    61    23    24 ar  
    62    23    64 1   
    63    24    25 ar  
    64    25    26 ar  
    65    25    65 1   
    66    26    66 1   
    67    27    67 1   
    68    27    74 1   
    69    28    68 1   
    70    29    69 1   
    71    30    70 1   
    72    30    71 1   
    73    31    74 2   
    74    33    76 1   
    75    38    76 1   
    76    39    76 1   
    77    54    72 1   
    78    55    72 1   
@<TRIPOS>SUBSTRUCTURE
     1 YV7         1 TEMP              0 ****  ****    0 ROOT
