@<TRIPOS>MOLECULE
YV7
   76    78     1     0     0
SMALL
abcg2


@<TRIPOS>ATOM
      1 C10         -3.2660   -12.2550    -4.2490 c          1 YV7       0.563000
      2 C13         -5.3510   -16.8400    -4.6990 c3         1 YV7      -0.078400
      3 C15         -6.4000   -19.0960    -5.1350 c          1 YV7       0.603100
      4 C21         -9.1760   -19.0150    -6.8140 c3         1 YV7      -0.124100
      5 C22         -4.9580   -10.9000    -5.1550 c5         1 YV7       0.099000
      6 C24         -9.5900   -15.6020     3.0140 ca         1 YV7       0.178000
      7 C26         -8.0120   -15.9640     1.2690 ca         1 YV7      -0.081500
      8 C28        -10.3180   -15.6070     0.7470 ca         1 YV7      -0.081500
      9 C04         -8.0850   -14.5870    -1.6490 c3         1 YV7       0.035700
     10 C05         -8.6810   -15.9110    -1.1510 c3         1 YV7      -0.037100
     11 C07         -5.6250   -15.3590    -4.4460 c3         1 YV7       0.102700
     12 C08         -4.3300   -14.5480    -4.4520 c3         1 YV7      -0.073400
     13 C09         -4.5520   -13.0660    -4.1960 c5         1 YV7      -0.156700
     14 C18         -7.6000   -14.7320    -3.0940 c          1 YV7       0.587100
     15 C23         -5.4610   -12.3440    -5.1900 c5         1 YV7      -0.089400
     16 C25         -8.2860   -15.8450     2.6230 ca         1 YV7      -0.149000
     17 C27         -9.0180   -15.8440     0.3130 ca         1 YV7      -0.103300
     18 C29        -10.6160   -15.4840     2.0980 ca         1 YV7      -0.149000
     19 C31         -9.8180   -11.2390    -1.4040 c3         1 YV7       0.096500
     20 C33        -10.2970   -11.3220     0.0700 c3         1 YV7      -0.068100
     21 C34         -7.0950   -10.6780     2.8720 ca         1 YV7      -0.103000
     22 C35         -7.4610   -11.9680     2.5080 ca         1 YV7      -0.104000
     23 C36         -8.5030   -12.1710     1.6160 ca         1 YV7      -0.104500
     24 C37         -9.2000   -11.0930     1.0690 ca         1 YV7      -0.089300
     25 C38         -8.8290    -9.8040     1.4480 ca         1 YV7      -0.104500
     26 C39         -7.7850    -9.5960     2.3410 ca         1 YV7      -0.104000
     27 N02         -9.0530   -13.5320    -1.5420 ns         1 YV7      -0.493900
     28 N06         -6.3340   -15.1620    -3.1980 ns         1 YV7      -0.501900
     29 N11         -3.5610   -11.0720    -4.8160 ns         1 YV7      -0.514900
     30 N32         -9.3980    -9.9330    -1.8490 n8         1 YV7      -0.982200
     31 O03         -7.5320   -11.8980    -1.8050 o          1 YV7      -0.589100
     32 O12         -2.1720   -12.6050    -3.8400 o          1 YV7      -0.562000
     33 O16         -7.4510   -19.8910    -5.3320 os         1 YV7      -0.453100
     34 O17         -5.3030   -19.5940    -5.1850 o          1 YV7      -0.440000
     35 O19         -8.3310   -14.4960    -4.0410 o          1 YV7      -0.603100
     36 H131        -4.7360   -17.2380    -3.8870 hc         1 YV7       0.063200
     37 H1          -4.7600   -16.9270    -5.6130 hc         1 YV7       0.063200
     38 H201        -8.9600   -18.5830    -4.7060 h1         1 YV7       0.051700
     39 H202        -9.4130   -20.2390    -5.0640 h1         1 YV7       0.051700
     40 H213       -10.2280   -18.7280    -6.8380 hc         1 YV7       0.049367
     41 H212        -8.5940   -18.1680    -7.1780 hc         1 YV7       0.049367
     42 H211        -9.0400   -19.8480    -7.5040 hc         1 YV7       0.049367
     43 H222        -5.4810   -10.3100    -4.3970 h1         1 YV7       0.049700
     44 H221        -5.0700   -10.3920    -6.1120 h1         1 YV7       0.049700
     45 H261        -6.9920   -16.1540     0.9540 ha         1 YV7       0.115000
     46 H281       -11.1200   -15.5180     0.0240 ha         1 YV7       0.115000
     47 H041        -7.2310   -14.3370    -1.0120 h1         1 YV7       0.079700
     48 H052        -9.5690   -16.1590    -1.7400 hc         1 YV7       0.061700
     49 H051        -7.9520   -16.7040    -1.3310 hc         1 YV7       0.061700
     50 H071        -6.2750   -14.9840    -5.2390 h1         1 YV7       0.080700
     51 H081        -3.8520   -14.6860    -5.4260 hc         1 YV7       0.060700
     52 H082        -3.6420   -14.9530    -3.7040 hc         1 YV7       0.060700
     53 H091        -4.9530   -12.9300    -3.1830 hc         1 YV7       0.087700
     54 H142        -7.2700   -17.1970    -5.6050 hc         1 YV7       0.066700
     55 H141        -7.2180   -17.5760    -3.9040 hc         1 YV7       0.066700
     56 H231        -6.5180   -12.4170    -4.9430 hc         1 YV7       0.063200
     57 H232        -5.3210   -12.7600    -6.1920 hc         1 YV7       0.063200
     58 H251        -7.4990   -15.9390     3.3610 ha         1 YV7       0.135500
     59 H291       -11.6300   -15.2970     2.4290 ha         1 YV7       0.135500
     60 H311       -10.6690   -11.5450    -2.0220 h1         1 YV7       0.069700
     61 H332       -11.0860   -10.5770     0.1960 hc         1 YV7       0.051700
     62 H331       -10.7590   -12.2960     0.2450 hc         1 YV7       0.051700
     63 H351        -6.9370   -12.8200     2.9230 ha         1 YV7       0.113000
     64 H361        -8.7840   -13.1810     1.3440 ha         1 YV7       0.109000
     65 H381        -9.3700    -8.9530     1.0520 ha         1 YV7       0.109000
     66 H391        -7.5150    -8.5870     2.6250 ha         1 YV7       0.113000
     67 H021       -10.0320   -13.7730    -1.5320 hn         1 YV7       0.320500
     68 H061        -5.8100   -15.3080    -2.3480 hn         1 YV7       0.313500
     69 H111        -2.8940   -10.3170    -4.8540 hn         1 YV7       0.325500
     70 H322       -10.1430    -9.2680    -1.6840 hn         1 YV7       0.409500
     71 H2          -8.6010    -9.6130    -1.3120 hn         1 YV7       0.409500
     72 C14         -6.6370   -17.6390    -4.8300 c3         1 YV7      -0.185400
     73 F30         -9.8630   -15.4770     4.3220 f          1 YV7      -0.173000
     74 C01         -8.6910   -12.2380    -1.6250 c          1 YV7       0.613100
     75 H341        -6.2830   -10.5170     3.5700 ha         1 YV7       0.115000
     76 C20         -8.7980   -19.4060    -5.4030 c3         1 YV7       0.177600
@<TRIPOS>BOND
     1     1    13 1   
     2     1    29 1   
     3     1    32 2   
     4     2    11 1   
     5     2    36 1   
     6     2    37 1   
     7     2    72 1   
     8     3    33 1   
     9     3    34 2   
    10     3    72 1   
    11     4    40 1   
    12     4    41 1   
    13     4    42 1   
    14     4    76 1   
    15     5    15 1   
    16     5    29 1   
    17     5    43 1   
    18     5    44 1   
    19     6    16 ar  
    20     6    18 ar  
    21     6    73 1   
    22     7    16 ar  
    23     7    17 ar  
    24     7    45 1   
    25     8    17 ar  
    26     8    18 ar  
    27     8    46 1   
    28     9    10 1   
    29     9    14 1   
    30     9    27 1   
    31     9    47 1   
    32    10    17 1   
    33    10    48 1   
    34    10    49 1   
    35    11    12 1   
    36    11    28 1   
    37    11    50 1   
    38    12    13 1   
    39    12    51 1   
    40    12    52 1   
    41    13    15 1   
    42    13    53 1   
    43    14    28 1   
    44    14    35 2   
    45    15    56 1   
    46    15    57 1   
    47    16    58 1   
    48    18    59 1   
    49    19    20 1   
    50    19    30 1   
    51    19    60 1   
    52    19    74 1   
    53    20    24 1   
    54    20    61 1   
    55    20    62 1   
    56    21    22 ar  
    57    21    26 ar  
    58    21    75 1   
    59    22    23 ar  
    60    22    63 1   
    61    23    24 ar  
    62    23    64 1   
    63    24    25 ar  
    64    25    26 ar  
    65    25    65 1   
    66    26    66 1   
    67    27    67 1   
    68    27    74 1   
    69    28    68 1   
    70    29    69 1   
    71    30    70 1   
    72    30    71 1   
    73    31    74 2   
    74    33    76 1   
    75    38    76 1   
    76    39    76 1   
    77    54    72 1   
    78    55    72 1   
@<TRIPOS>SUBSTRUCTURE
     1 YV7         1 TEMP              0 ****  ****    0 ROOT
