@<TRIPOS>MOLECULE
YV8
   63    66     1     0     0
SMALL
No Charge or Current Charge


@<TRIPOS>ATOM
      1 C10        -22.2510   -11.7730    10.5420 cc         1 YV8      -0.165400
      2 C01        -22.3280   -12.1800    16.5990 c3         1 YV8      -0.094100
      3 C02        -22.9670   -11.6750    15.2840 c3         1 YV8       0.187000
      4 C03        -22.5950   -12.5150    14.0510 ca         1 YV8      -0.132300
      5 C04        -22.5470   -11.9310    12.7670 ca         1 YV8      -0.056200
      6 C06        -22.6460   -10.5120    11.0050 cd         1 YV8      -0.044300
      7 C07        -22.8970    -9.2640    10.2000 c          1 YV8       0.721200
      8 C11        -21.9800   -12.1050     9.1460 ca         1 YV8       0.103200
      9 C12        -20.8700   -11.5570     8.4810 ca         1 YV8      -0.108000
     10 C13        -20.5980   -11.9100     7.1510 ca         1 YV8       0.163000
     11 C15        -21.4270   -12.8240     6.4660 ca         1 YV8      -0.159300
     12 C16        -21.1450   -13.2210     5.0110 c3         1 YV8      -0.201100
     13 C18        -21.6810   -10.5610     4.0920 c3         1 YV8      -0.323100
     14 C21        -22.5280   -13.3850     7.1400 ca         1 YV8      -0.068000
     15 C22        -22.7990   -13.0290     8.4730 ca         1 YV8      -0.129000
     16 C23        -22.2180   -12.6630    11.6600 ca         1 YV8      -0.084800
     17 C24        -21.9190   -14.0280    11.7220 ca         1 YV8      -0.065000
     18 C25        -21.9750   -14.6510    12.9830 ca         1 YV8      -0.166000
     19 C26        -22.3130   -13.9050    14.1360 ca         1 YV8      -0.110000
     20 C28        -25.3340   -12.6000    15.8720 c5         1 YV8       0.065000
     21 C29        -26.6620   -12.1080    15.2180 c5         1 YV8       0.158300
     22 C30        -27.0080   -12.8180    13.8840 c3         1 YV8      -0.086400
     23 C31        -27.4200   -14.3030    14.0310 c3         1 YV8      -0.078400
     24 C32        -27.7860   -14.9570    12.6830 c3         1 YV8       0.148800
     25 C35        -25.1060   -10.4600    14.8670 c          1 YV8       0.692100
     26 F14        -19.5270   -11.3650     6.5320 f          1 YV8      -0.200000
     27 N05        -22.8170   -10.6140    12.4120 na         1 YV8      -0.191700
     28 N27        -24.4310   -11.5450    15.4060 n          1 YV8      -0.442800
     29 N33        -28.1900   -16.3640    12.8570 n8         1 YV8      -1.000200
     30 O08        -22.7810    -9.2750     8.9830 o          1 YV8      -0.692500
     31 O09        -23.2320    -8.2600    10.8150 o          1 YV8      -0.692500
     32 O19        -23.5010   -12.4720     4.0010 o          1 YV8      -0.535500
     33 O20        -21.5070   -12.6140     2.4430 o          1 YV8      -0.535500
     34 O34        -26.4430   -10.7050    14.9330 os         1 YV8      -0.415100
     35 O36        -24.5970    -9.4460    14.4160 o          1 YV8      -0.527000
     36 S17        -22.0640   -12.2810     3.7610 s6         1 YV8       1.063000
     37 H013       -22.5160   -11.4630    17.4070 hc         1 YV8       0.037700
     38 H011       -22.7400   -13.1470    16.9090 hc         1 YV8       0.037700
     39 H012       -21.2430   -12.2830    16.4840 hc         1 YV8       0.037700
     40 H021       -22.5440   -10.6730    15.1290 h1         1 YV8       0.085700
     41 H121       -20.2200   -10.8570     8.9970 ha         1 YV8       0.147000
     42 H161       -21.4050   -14.2710     4.8440 h1         1 YV8       0.096700
     43 H162       -20.0850   -13.0870     4.7690 h1         1 YV8       0.096700
     44 H182       -22.0460   -10.3260     5.0980 h1         1 YV8       0.106700
     45 H181       -20.5950   -10.4430     4.0270 h1         1 YV8       0.106700
     46 H183       -22.1930    -9.9580     3.3360 h1         1 YV8       0.106700
     47 H211       -23.1770   -14.0970     6.6330 ha         1 YV8       0.109000
     48 H221       -23.6490   -13.4700     8.9870 ha         1 YV8       0.119000
     49 H241       -21.6580   -14.5890    10.8280 ha         1 YV8       0.107000
     50 H251       -21.7580   -15.7130    13.0700 ha         1 YV8       0.093000
     51 H261       -22.3540   -14.4230    15.0900 ha         1 YV8       0.090000
     52 H281       -25.0230   -13.5940    15.5270 h1         1 YV8       0.058200
     53 H282       -25.4010   -12.6080    16.9680 h1         1 YV8       0.058200
     54 H291       -27.5150   -12.2070    15.9040 h1         1 YV8       0.057700
     55 H301       -27.8300   -12.2790    13.3980 hc         1 YV8       0.063200
     56 H302       -26.1510   -12.7550    13.2010 hc         1 YV8       0.063200
     57 H311       -26.6010   -14.8690    14.4920 hc         1 YV8       0.044700
     58 H312       -28.2790   -14.3690    14.7100 hc         1 YV8       0.044700
     59 H322       -28.6170   -14.4070    12.2190 h1         1 YV8       0.031200
     60 H321       -26.9210   -14.9180    12.0050 h1         1 YV8       0.031200
     61 H051       -23.1760    -9.8790    13.0170 hn         1 YV8       0.391000
     62 H331       -28.3650   -16.7790    11.9340 hn         1 YV8       0.390500
     63 H1         -27.3880   -16.9000    13.2120 hn         1 YV8       0.390500
@<TRIPOS>BOND
     1     1     6 2   
     2     1     8 1   
     3     1    16 1   
     4     2     3 1   
     5     2    37 1   
     6     2    38 1   
     7     2    39 1   
     8     3     4 1   
     9     3    28 1   
    10     3    40 1   
    11     4     5 ar  
    12     4    19 ar  
    13     5    16 ar  
    14     5    27 1   
    15     6     7 1   
    16     6    27 1   
    17     7    30 1   
    18     7    31 1   
    19     8     9 ar  
    20     8    15 ar  
    21     9    10 ar  
    22     9    41 1   
    23    10    11 ar  
    24    10    26 1   
    25    11    12 1   
    26    11    14 ar  
    27    12    36 1   
    28    12    42 1   
    29    12    43 1   
    30    13    36 1   
    31    13    44 1   
    32    13    45 1   
    33    13    46 1   
    34    14    15 ar  
    35    14    47 1   
    36    15    48 1   
    37    16    17 ar  
    38    17    18 ar  
    39    17    49 1   
    40    18    19 ar  
    41    18    50 1   
    42    19    51 1   
    43    20    21 1   
    44    20    28 1   
    45    20    52 1   
    46    20    53 1   
    47    21    22 1   
    48    21    34 1   
    49    21    54 1   
    50    22    23 1   
    51    22    55 1   
    52    22    56 1   
    53    23    24 1   
    54    23    57 1   
    55    23    58 1   
    56    24    29 1   
    57    24    59 1   
    58    24    60 1   
    59    25    28 1   
    60    25    34 1   
    61    25    35 2   
    62    27    61 1   
    63    29    62 1   
    64    29    63 1   
    65    32    36 2   
    66    33    36 2   
@<TRIPOS>SUBSTRUCTURE
     1 YV8         1 TEMP              0 ****  ****    0 ROOT
