@<TRIPOS>MOLECULE
YV8
   63    66     1     0     0
SMALL
abcg2


@<TRIPOS>ATOM
      1 C10        -22.1190   -11.6110    10.3130 cc         1 YV8      -0.165400
      2 C01        -22.4060   -12.3050    16.3610 c3         1 YV8      -0.094100
      3 C02        -22.9350   -11.7700    15.0370 c3         1 YV8       0.187000
      4 C03        -22.4450   -12.5220    13.8170 ca         1 YV8      -0.132300
      5 C04        -22.4410   -11.9010    12.5600 ca         1 YV8      -0.056200
      6 C06        -22.5920   -10.4420    10.8650 cd         1 YV8      -0.044300
      7 C07        -22.9710    -9.1110    10.2590 c          1 YV8       0.721200
      8 C11        -21.7530   -11.9090     8.9250 ca         1 YV8       0.103200
      9 C12        -20.7420   -11.2090     8.2700 ca         1 YV8      -0.108000
     10 C13        -20.3890   -11.5700     6.9870 ca         1 YV8       0.163000
     11 C15        -21.0010   -12.6050     6.2930 ca         1 YV8      -0.159300
     12 C16        -20.6030   -12.9660     4.9030 c3         1 YV8      -0.201100
     13 C18        -21.3540   -10.4510     3.7930 c3         1 YV8      -0.323100
     14 C21        -22.0070   -13.2980     6.9600 ca         1 YV8      -0.068000
     15 C22        -22.3720   -12.9650     8.2530 ca         1 YV8      -0.129000
     16 C23        -22.0190   -12.5580    11.3840 ca         1 YV8      -0.084800
     17 C24        -21.5870   -13.8870    11.4620 ca         1 YV8      -0.065000
     18 C25        -21.5930   -14.5110    12.6910 ca         1 YV8      -0.166000
     19 C26        -22.0160   -13.8360    13.8490 ca         1 YV8      -0.110000
     20 C28        -25.2040   -12.9190    15.1030 c5         1 YV8       0.065000
     21 C29        -26.6100   -12.3140    15.1320 c5         1 YV8       0.158300
     22 C30        -27.6190   -13.0310    14.2640 c3         1 YV8      -0.086400
     23 C31        -27.8860   -14.4450    14.7640 c3         1 YV8      -0.078400
     24 C32        -28.9220   -15.1670    13.9180 c3         1 YV8       0.148800
     25 C35        -25.1140   -10.6530    14.6840 c          1 YV8       0.692100
     26 F14        -19.3960   -10.8930     6.3820 f          1 YV8      -0.200000
     27 N05        -22.7790   -10.6320    12.2050 na         1 YV8      -0.191700
     28 N27        -24.3890   -11.7290    15.0500 n          1 YV8      -0.442800
     29 N33        -29.1520   -16.5140    14.4200 n8         1 YV8      -1.000200
     30 O08        -22.8500    -9.0010     9.0280 o          1 YV8      -0.692500
     31 O09        -23.3800    -8.2620    11.0750 o          1 YV8      -0.692500
     32 O19        -23.0530   -12.4540     3.9930 o          1 YV8      -0.535500
     33 O20        -21.1720   -12.6500     2.3450 o          1 YV8      -0.535500
     34 O34        -26.4150   -10.9670    14.6660 os         1 YV8      -0.415100
     35 O36        -24.7170    -9.5430    14.4040 o          1 YV8      -0.527000
     36 S17        -21.6560   -12.2000     3.6490 s6         1 YV8       1.063000
     37 H013       -22.7420   -11.6660    17.1760 hc         1 YV8       0.037700
     38 H011       -22.7420   -13.3200    16.5700 hc         1 YV8       0.037700
     39 H012       -21.3160   -12.3080    16.3580 hc         1 YV8       0.037700
     40 H021       -22.6040   -10.7320    14.9560 h1         1 YV8       0.085700
     41 H121       -20.2210   -10.3990     8.7620 ha         1 YV8       0.147000
     42 H161       -20.7260   -14.0370     4.7200 h1         1 YV8       0.096700
     43 H162       -19.5760   -12.6990     4.6550 h1         1 YV8       0.096700
     44 H182       -21.6770   -10.0920     4.7670 h1         1 YV8       0.106700
     45 H181       -20.2990   -10.2450     3.6330 h1         1 YV8       0.106700
     46 H183       -21.9470    -9.9720     3.0140 h1         1 YV8       0.106700
     47 H211       -22.5020   -14.1190     6.4580 ha         1 YV8       0.109000
     48 H221       -23.1580   -13.5250     8.7440 ha         1 YV8       0.119000
     49 H241       -21.2500   -14.4130    10.5770 ha         1 YV8       0.107000
     50 H251       -21.2640   -15.5390    12.7750 ha         1 YV8       0.093000
     51 H261       -21.9940   -14.3720    14.7890 ha         1 YV8       0.090000
     52 H281       -25.0450   -13.5520    14.2220 h1         1 YV8       0.058200
     53 H282       -25.0030   -13.5190    15.9900 h1         1 YV8       0.058200
     54 H291       -26.9770   -12.2540    16.1620 h1         1 YV8       0.057700
     55 H301       -28.5540   -12.4640    14.2560 hc         1 YV8       0.063200
     56 H302       -27.2510   -13.0600    13.2330 hc         1 YV8       0.063200
     57 H311       -26.9570   -15.0270    14.7580 hc         1 YV8       0.044700
     58 H312       -28.2280   -14.4160    15.8030 hc         1 YV8       0.044700
     59 H322       -29.8660   -14.6180    13.9670 h1         1 YV8       0.031200
     60 H321       -28.6030   -15.1370    12.8660 h1         1 YV8       0.031200
     61 H051       -23.1830    -9.9220    12.7990 hn         1 YV8       0.391000
     62 H331       -29.8760   -16.9590    13.8700 hn         1 YV8       0.390500
     63 H1         -28.3190   -17.0710    14.2730 hn         1 YV8       0.390500
@<TRIPOS>BOND
     1     1     6 2   
     2     1     8 1   
     3     1    16 1   
     4     2     3 1   
     5     2    37 1   
     6     2    38 1   
     7     2    39 1   
     8     3     4 1   
     9     3    28 1   
    10     3    40 1   
    11     4     5 ar  
    12     4    19 ar  
    13     5    16 ar  
    14     5    27 1   
    15     6     7 1   
    16     6    27 1   
    17     7    30 1   
    18     7    31 1   
    19     8     9 ar  
    20     8    15 ar  
    21     9    10 ar  
    22     9    41 1   
    23    10    11 ar  
    24    10    26 1   
    25    11    12 1   
    26    11    14 ar  
    27    12    36 1   
    28    12    42 1   
    29    12    43 1   
    30    13    36 1   
    31    13    44 1   
    32    13    45 1   
    33    13    46 1   
    34    14    15 ar  
    35    14    47 1   
    36    15    48 1   
    37    16    17 ar  
    38    17    18 ar  
    39    17    49 1   
    40    18    19 ar  
    41    18    50 1   
    42    19    51 1   
    43    20    21 1   
    44    20    28 1   
    45    20    52 1   
    46    20    53 1   
    47    21    22 1   
    48    21    34 1   
    49    21    54 1   
    50    22    23 1   
    51    22    55 1   
    52    22    56 1   
    53    23    24 1   
    54    23    57 1   
    55    23    58 1   
    56    24    29 1   
    57    24    59 1   
    58    24    60 1   
    59    25    28 1   
    60    25    34 1   
    61    25    35 2   
    62    27    61 1   
    63    29    62 1   
    64    29    63 1   
    65    32    36 2   
    66    33    36 2   
@<TRIPOS>SUBSTRUCTURE
     1 YV8         1 TEMP              0 ****  ****    0 ROOT
