@<TRIPOS>MOLECULE
YVA
   71    73     1     0     0
SMALL
abcg2


@<TRIPOS>ATOM
      1 C10         -9.3310    -9.8610    38.4660 c          1 YVA       0.564000
      2 C13        -11.5730   -14.2550    39.5880 c3         1 YVA      -0.078400
      3 C15        -12.8270   -16.4260    39.9140 c          1 YVA       0.603100
      4 C20        -15.0710   -16.5290    40.8470 c3         1 YVA       0.177600
      5 C21        -16.0650   -16.1680    39.7660 c3         1 YVA      -0.124100
      6 C22        -11.2060    -8.5100    38.0430 c5         1 YVA       0.101000
      7 C24        -13.1960   -12.4000    45.4040 cx         1 YVA      -0.131700
      8 C26        -13.0140   -13.5970    46.2860 cx         1 YVA      -0.127400
      9 C28        -13.7060    -6.6500    42.8170 ce         1 YVA      -0.075200
     10 C01        -13.1100    -9.0250    42.9010 c          1 YVA       0.607300
     11 C04        -12.8000   -11.4270    43.1040 c3         1 YVA       0.039700
     12 C05        -13.3700   -12.5890    43.9190 c3         1 YVA      -0.056400
     13 C07        -11.6610   -12.7350    39.7100 c3         1 YVA       0.101700
     14 C08        -10.4530   -12.0530    39.0710 c3         1 YVA      -0.072400
     15 C09        -10.5160   -10.5370    39.1390 c5         1 YVA      -0.156700
     16 C18        -12.8980   -11.7500    41.6110 c          1 YVA       0.587100
     17 C23        -11.7210    -9.8890    38.4560 c5         1 YVA      -0.089400
     18 C25        -11.8610   -12.6720    46.0260 cx         1 YVA      -0.127400
     19 C27        -13.9900    -7.8850    43.2400 cf         1 YVA      -0.293200
     20 C29        -15.8910    -3.0500    43.4990 ca         1 YVA       0.043000
     21 C30        -14.6870    -3.0420    42.7940 ca         1 YVA      -0.094000
     22 C31        -13.9970    -4.2230    42.5860 ca         1 YVA      -0.089500
     23 C32        -14.4800    -5.4400    43.0730 ca         1 YVA      -0.070800
     24 C33        -15.6870    -5.4380    43.7800 ca         1 YVA      -0.089500
     25 C34        -16.3830    -4.2650    43.9910 ca         1 YVA      -0.094000
     26 C36        -17.2290    -0.8240    43.9020 c1         1 YVA      -0.214000
     27 N02        -13.5130   -10.2110    43.3960 ns         1 YVA      -0.483900
     28 N06        -11.8010   -12.3240    41.0930 ns         1 YVA      -0.499900
     29 N11         -9.7920    -8.7560    37.8550 ns         1 YVA      -0.514900
     30 O03        -12.0860    -8.9090    42.2380 o          1 YVA      -0.617100
     31 O12         -8.1730   -10.2440    38.4870 o          1 YVA      -0.560000
     32 O16        -13.8890   -17.1300    40.3030 os         1 YVA      -0.453100
     33 O17        -11.9110   -17.0270    39.4110 o          1 YVA      -0.441000
     34 O19        -13.9230   -11.5330    40.9840 o          1 YVA      -0.610100
     35 H1         -11.4490   -14.5050    38.5320 hc         1 YVA       0.063700
     36 H131       -10.6780   -14.6130    40.1050 hc         1 YVA       0.063700
     37 H201       -14.8250   -15.6640    41.4650 h1         1 YVA       0.051700
     38 H202       -15.4900   -17.2860    41.5080 h1         1 YVA       0.051700
     39 H213       -16.9740   -15.7820    40.2280 hc         1 YVA       0.049700
     40 H212       -15.6820   -15.3990    39.0950 hc         1 YVA       0.049700
     41 H211       -16.3350   -17.0400    39.1710 hc         1 YVA       0.049700
     42 H221       -11.3780    -7.7650    38.8250 h1         1 YVA       0.045700
     43 H222       -11.6670    -8.1460    37.1260 h1         1 YVA       0.045700
     44 H241       -13.7620   -11.5820    45.8370 hc         1 YVA       0.079700
     45 H261       -13.4700   -13.5850    47.2670 hc         1 YVA       0.073200
     46 H262       -12.9950   -14.5730    45.8170 hc         1 YVA       0.073200
     47 H281       -12.8090    -6.5110    42.2210 ha         1 YVA       0.196000
     48 H041       -11.7490   -11.2970    43.3820 h1         1 YVA       0.077700
     49 H051       -14.4270   -12.7250    43.6700 hc         1 YVA       0.055200
     50 H052       -12.8590   -13.5050    43.6080 hc         1 YVA       0.055200
     51 H071       -12.5640   -12.4030    39.1940 h1         1 YVA       0.079700
     52 H082       -10.3980   -12.3720    38.0260 hc         1 YVA       0.061200
     53 H081        -9.5360   -12.4050    39.5550 hc         1 YVA       0.061200
     54 H091       -10.4900   -10.2190    40.1900 hc         1 YVA       0.091700
     55 H231       -12.5980    -9.8260    39.0970 hc         1 YVA       0.062700
     56 H232       -11.9970   -10.4630    37.5680 hc         1 YVA       0.062700
     57 H252       -11.0660   -13.0250    45.3800 hc         1 YVA       0.073200
     58 H251       -11.5260   -12.0290    46.8300 hc         1 YVA       0.073200
     59 H271       -14.8660    -8.0920    43.8460 ha         1 YVA       0.178000
     60 H301       -14.2940    -2.1100    42.4080 ha         1 YVA       0.123000
     61 H311       -13.0640    -4.2020    42.0350 ha         1 YVA       0.116500
     62 H331       -16.0980    -6.3590    44.1720 ha         1 YVA       0.116500
     63 H341       -17.3160    -4.2830    44.5380 ha         1 YVA       0.123000
     64 H361       -17.7730     0.0790    44.0640 ha         1 YVA       0.259000
     65 H021       -14.4170   -10.2760    43.8380 hn         1 YVA       0.323500
     66 H061       -10.9920   -12.4320    41.6880 hn         1 YVA       0.315500
     67 H111        -9.1720    -8.0800    37.4360 hn         1 YVA       0.325500
     68 C14        -12.8150   -14.9360    40.1440 c3         1 YVA      -0.185400
     69 C35        -16.6140    -1.8410    43.7150 cg         1 YVA      -0.135000
     70 H142       -13.7100   -14.4890    39.7030 hc         1 YVA       0.067200
     71 H141       -12.8930   -14.7510    41.2200 hc         1 YVA       0.067200
@<TRIPOS>BOND
     1     1    15 1   
     2     1    29 1   
     3     1    31 2   
     4     2    13 1   
     5     2    35 1   
     6     2    36 1   
     7     2    68 1   
     8     3    32 1   
     9     3    33 2   
    10     3    68 1   
    11     4     5 1   
    12     4    32 1   
    13     4    37 1   
    14     4    38 1   
    15     5    39 1   
    16     5    40 1   
    17     5    41 1   
    18     6    17 1   
    19     6    29 1   
    20     6    42 1   
    21     6    43 1   
    22     7     8 1   
    23     7    12 1   
    24     7    18 1   
    25     7    44 1   
    26     8    18 1   
    27     8    45 1   
    28     8    46 1   
    29     9    19 2   
    30     9    23 1   
    31     9    47 1   
    32    10    19 1   
    33    10    27 1   
    34    10    30 2   
    35    11    12 1   
    36    11    16 1   
    37    11    27 1   
    38    11    48 1   
    39    12    49 1   
    40    12    50 1   
    41    13    14 1   
    42    13    28 1   
    43    13    51 1   
    44    14    15 1   
    45    14    52 1   
    46    14    53 1   
    47    15    17 1   
    48    15    54 1   
    49    16    28 1   
    50    16    34 2   
    51    17    55 1   
    52    17    56 1   
    53    18    57 1   
    54    18    58 1   
    55    19    59 1   
    56    20    21 ar  
    57    20    25 ar  
    58    20    69 1   
    59    21    22 ar  
    60    21    60 1   
    61    22    23 ar  
    62    22    61 1   
    63    23    24 ar  
    64    24    25 ar  
    65    24    62 1   
    66    25    63 1   
    67    26    64 1   
    68    26    69 3   
    69    27    65 1   
    70    28    66 1   
    71    29    67 1   
    72    68    70 1   
    73    68    71 1   
@<TRIPOS>SUBSTRUCTURE
     1 YVA         1 TEMP              0 ****  ****    0 ROOT
