@<TRIPOS>MOLECULE
YVA
   71    73     1     0     0
SMALL
No Charge or Current Charge


@<TRIPOS>ATOM
      1 C10         -8.5180   -11.1210    37.7940 c          1 YVA       0.564000
      2 C13        -11.8290   -14.6280    39.6270 c3         1 YVA      -0.078400
      3 C15        -13.5660   -16.4400    40.3810 c          1 YVA       0.603100
      4 C20        -15.8000   -15.8180    41.2470 c3         1 YVA       0.177600
      5 C21        -16.5830   -15.7970    39.9180 c3         1 YVA      -0.124100
      6 C22        -10.0080    -9.3770    37.1500 c5         1 YVA       0.101000
      7 C24        -12.5860   -11.6330    45.0370 cx         1 YVA      -0.131700
      8 C26        -12.2200   -12.6390    46.1030 cx         1 YVA      -0.127400
      9 C28        -14.0410    -6.4140    44.0180 ce         1 YVA      -0.075200
     10 C01        -13.0830    -8.6500    43.3760 c          1 YVA       0.607300
     11 C04        -12.5140   -10.9760    42.5370 c3         1 YVA       0.039700
     12 C05        -12.8270   -12.0700    43.5940 c3         1 YVA      -0.056400
     13 C07        -11.5470   -13.1170    39.4440 c3         1 YVA       0.101700
     14 C08        -10.1840   -12.8510    38.7600 c3         1 YVA      -0.072400
     15 C09         -9.8520   -11.3510    38.5150 c5         1 YVA      -0.156700
     16 C18        -12.6400   -11.5490    41.0970 c          1 YVA       0.587100
     17 C23        -10.8620   -10.5890    37.6120 c5         1 YVA      -0.089400
     18 C25        -11.1960   -11.6330    45.6280 cx         1 YVA      -0.127400
     19 C27        -14.1580    -7.6270    43.4000 cf         1 YVA      -0.293200
     20 C29        -16.8870    -3.1750    44.3350 ca         1 YVA       0.043000
     21 C30        -15.6150    -3.0700    44.9220 ca         1 YVA      -0.094000
     22 C31        -14.6970    -4.1300    44.8130 ca         1 YVA      -0.089500
     23 C32        -15.0390    -5.3070    44.1160 ca         1 YVA      -0.070800
     24 C33        -16.3180    -5.4050    43.5280 ca         1 YVA      -0.089500
     25 C34        -17.2360    -4.3450    43.6380 ca         1 YVA      -0.094000
     26 C36        -18.6210    -1.1820    44.5470 c1         1 YVA      -0.214000
     27 N02        -13.4020    -9.8010    42.6970 ns         1 YVA      -0.483900
     28 N06        -11.6300   -12.4150    40.7280 ns         1 YVA      -0.499900
     29 N11         -8.6980   -10.0100    37.0160 ns         1 YVA      -0.514900
     30 O03        -11.9970    -8.4790    43.9100 o          1 YVA      -0.617100
     31 O12         -7.5460   -11.8530    37.6980 o          1 YVA      -0.560000
     32 O16        -14.6930   -16.7380    41.1190 os         1 YVA      -0.453100
     33 O17        -12.7690   -17.3160    40.0820 o          1 YVA      -0.441000
     34 O19        -13.5620   -11.2630    40.3420 o          1 YVA      -0.610100
     35 H1         -11.7800   -15.1150    38.6440 hc         1 YVA       0.063700
     36 H131       -11.0350   -15.0740    40.2400 hc         1 YVA       0.063700
     37 H201       -15.4820   -14.8070    41.5300 h1         1 YVA       0.051700
     38 H202       -16.4790   -16.1700    42.0350 h1         1 YVA       0.051700
     39 H213       -17.4590   -15.1440    40.0080 hc         1 YVA       0.049700
     40 H212       -15.9690   -15.4280    39.0890 hc         1 YVA       0.049700
     41 H211       -16.9350   -16.8050    39.6660 hc         1 YVA       0.049700
     42 H221        -9.9920    -8.5840    37.9090 h1         1 YVA       0.045700
     43 H222       -10.3760    -8.9500    36.2070 h1         1 YVA       0.045700
     44 H241       -13.2480   -10.8270    45.3470 hc         1 YVA       0.079700
     45 H261       -12.6430   -12.5020    47.0960 hc         1 YVA       0.073200
     46 H262       -12.0850   -13.6770    45.8070 hc         1 YVA       0.073200
     47 H281       -13.0960    -6.1960    44.5200 ha         1 YVA       0.196000
     48 H041       -11.4700   -10.6560    42.6580 h1         1 YVA       0.077700
     49 H051       -13.8710   -12.3880    43.4800 hc         1 YVA       0.055200
     50 H052       -12.2160   -12.9560    43.3790 hc         1 YVA       0.055200
     51 H071       -12.3260   -12.7230    38.7770 h1         1 YVA       0.079700
     52 H082       -10.1660   -13.3860    37.8020 hc         1 YVA       0.061200
     53 H081        -9.3920   -13.3000    39.3720 hc         1 YVA       0.061200
     54 H091        -9.7860   -10.8240    39.4740 hc         1 YVA       0.091700
     55 H231       -11.7740   -10.2860    38.1400 hc         1 YVA       0.062700
     56 H232       -11.1660   -11.1980    36.7510 hc         1 YVA       0.062700
     57 H252       -10.3770   -11.9960    45.0120 hc         1 YVA       0.073200
     58 H251       -10.9330   -10.8180    46.2980 hc         1 YVA       0.073200
     59 H271       -15.0800    -7.8870    42.8880 ha         1 YVA       0.178000
     60 H301       -15.3350    -2.1690    45.4630 ha         1 YVA       0.123000
     61 H311       -13.7170    -4.0310    45.2740 ha         1 YVA       0.116500
     62 H331       -16.6150    -6.2970    42.9840 ha         1 YVA       0.116500
     63 H341       -18.2190    -4.4340    43.1800 ha         1 YVA       0.123000
     64 H361       -19.3190    -0.3730    44.6410 ha         1 YVA       0.259000
     65 H021       -14.3110    -9.8290    42.2500 hn         1 YVA       0.323500
     66 H061       -10.9060   -12.5900    41.4150 hn         1 YVA       0.315500
     67 H111        -7.9580    -9.7250    36.3850 hn         1 YVA       0.325500
     68 C14        -13.2070   -14.9390    40.2730 c3         1 YVA      -0.185400
     69 C35        -17.8250    -2.0940    44.4450 cg         1 YVA      -0.135000
     70 H142       -14.0130   -14.4120    39.7530 hc         1 YVA       0.067200
     71 H141       -13.2770   -14.5140    41.2810 hc         1 YVA       0.067200
@<TRIPOS>BOND
     1     1    15 1   
     2     1    29 1   
     3     1    31 2   
     4     2    13 1   
     5     2    35 1   
     6     2    36 1   
     7     2    68 1   
     8     3    32 1   
     9     3    33 2   
    10     3    68 1   
    11     4     5 1   
    12     4    32 1   
    13     4    37 1   
    14     4    38 1   
    15     5    39 1   
    16     5    40 1   
    17     5    41 1   
    18     6    17 1   
    19     6    29 1   
    20     6    42 1   
    21     6    43 1   
    22     7     8 1   
    23     7    12 1   
    24     7    18 1   
    25     7    44 1   
    26     8    18 1   
    27     8    45 1   
    28     8    46 1   
    29     9    19 2   
    30     9    23 1   
    31     9    47 1   
    32    10    19 1   
    33    10    27 1   
    34    10    30 2   
    35    11    12 1   
    36    11    16 1   
    37    11    27 1   
    38    11    48 1   
    39    12    49 1   
    40    12    50 1   
    41    13    14 1   
    42    13    28 1   
    43    13    51 1   
    44    14    15 1   
    45    14    52 1   
    46    14    53 1   
    47    15    17 1   
    48    15    54 1   
    49    16    28 1   
    50    16    34 2   
    51    17    55 1   
    52    17    56 1   
    53    18    57 1   
    54    18    58 1   
    55    19    59 1   
    56    20    21 ar  
    57    20    25 ar  
    58    20    69 1   
    59    21    22 ar  
    60    21    60 1   
    61    22    23 ar  
    62    22    61 1   
    63    23    24 ar  
    64    24    25 ar  
    65    24    62 1   
    66    25    63 1   
    67    26    64 1   
    68    26    69 3   
    69    27    65 1   
    70    28    66 1   
    71    29    67 1   
    72    68    70 1   
    73    68    71 1   
@<TRIPOS>SUBSTRUCTURE
     1 YVA         1 TEMP              0 ****  ****    0 ROOT
