@<TRIPOS>MOLECULE
YVB
   51    54     1     0     0
SMALL
abcg2


@<TRIPOS>ATOM
      1 N1          37.2270    12.2820    -8.4430 nc         1 YVB      -0.618100
      2 C7          40.9990    10.8980    -9.9350 ca         1 YVB      -0.153600
      3 C8          39.8270    11.3610    -9.3540 ca         1 YVB      -0.046000
      4 N2          36.6330    10.2310    -7.8620 na         1 YVB      -0.300600
      5 C9          38.7650    10.4920    -9.1080 ca         1 YVB      -0.127900
      6 O1          34.8110    15.7800    -7.4730 o          1 YVB      -0.622100
      7 C1          45.0150    15.8580   -11.0850 ca         1 YVB      -0.027300
      8 C5          42.9670    14.0190   -10.6560 ca         1 YVB      -0.127000
      9 N3          36.6750    15.0470    -8.5100 nt         1 YVB      -0.602000
     10 C4          43.4480    14.8050    -9.6180 ca         1 YVB      -0.058000
     11 C2          44.4650    15.7300    -9.8000 ca         1 YVB      -0.116300
     12 N           41.9270    13.0820   -10.4170 ns         1 YVB      -0.170000
     13 C           46.1250    16.8360   -11.3390 c3         1 YVB      -0.049800
     14 O           43.3150    11.3180   -10.1760 o          1 YVB      -0.566100
     15 C10         38.8810     9.1510    -9.4690 ca         1 YVB      -0.082000
     16 C11         40.0520     8.6860   -10.0470 ca         1 YVB      -0.120000
     17 C12         41.1120     9.5480   -10.2680 ca         1 YVB      -0.043000
     18 C13         37.5530    11.0130    -8.4790 cd         1 YVB       0.487400
     19 C14         36.0370    12.3440    -7.7690 ca         1 YVB       0.097400
     20 C15         35.6450    11.0500    -7.3890 ca         1 YVB      -0.090200
     21 C16         34.4790    10.7910    -6.6830 ca         1 YVB      -0.093000
     22 C17         33.6970    11.8870    -6.3630 ca         1 YVB      -0.105000
     23 C18         34.0670    13.1830    -6.7370 ca         1 YVB      -0.068000
     24 C19         35.2310    13.4470    -7.4430 ca         1 YVB      -0.101600
     25 C20         35.5500    14.8620    -7.8070 c          1 YVB       0.620700
     26 C21         43.5040    14.1430   -11.9410 ca         1 YVB       0.301000
     27 C22         44.5310    15.0770   -12.1240 ca         1 YVB      -0.174000
     28 H2          39.7280    12.3950    -9.0480 ha         1 YVB       0.134000
     29 H3          36.6880     9.2350    -7.7140 hn         1 YVB       0.362000
     30 H4          36.9440    15.9790    -8.7810 hn         1 YVB       0.328500
     31 H5          37.2730    14.2720    -8.7670 hn         1 YVB       0.328500
     32 H6          43.0060    14.6800    -8.6360 ha         1 YVB       0.116000
     33 H7          44.8190    17.6340    -8.8410 hc         1 YVB       0.039367
     34 H8          44.4410    16.3210    -7.7330 hc         1 YVB       0.039367
     35 H9          46.0310    16.4210    -8.4820 hc         1 YVB       0.039367
     36 H10         42.1420    12.9860   -12.9030 hn         1 YVB       0.446500
     37 H11         43.2690    13.6990   -13.9010 hn         1 YVB       0.446500
     38 H12         40.9710    13.3960   -10.4890 hn         1 YVB       0.154000
     39 H13         45.8260    17.8550   -11.0890 hc         1 YVB       0.043367
     40 H14         47.0020    16.6090   -10.7290 hc         1 YVB       0.043367
     41 H15         46.4340    16.8260   -12.3830 hc         1 YVB       0.043367
     42 H16         38.0620     8.4600    -9.3190 ha         1 YVB       0.110000
     43 H17         40.1350     7.6450   -10.3260 ha         1 YVB       0.124000
     44 H18         42.0260     9.1760   -10.7100 ha         1 YVB       0.142000
     45 H19         34.1940     9.7870    -6.3970 ha         1 YVB       0.121000
     46 H20         32.7780    11.7410    -5.8110 ha         1 YVB       0.121000
     47 H21         33.4210    14.0080    -6.4660 ha         1 YVB       0.143000
     48 H22         44.9620    15.1880   -13.1130 ha         1 YVB       0.112000
     49 C6          42.1860    11.7770   -10.1810 c          1 YVB       0.613700
     50 C3          44.9630    16.5670    -8.6570 c3         1 YVB      -0.036800
     51 N4          43.0820    13.3400   -12.9780 nv         1 YVB      -1.058000
@<TRIPOS>BOND
     1     1    18 2   
     2     1    19 1   
     3     2     3 ar  
     4     2    17 ar  
     5     2    49 1   
     6     3     5 ar  
     7     3    28 1   
     8     4    18 1   
     9     4    20 1   
    10     4    29 1   
    11     5    15 ar  
    12     5    18 1   
    13     6    25 2   
    14     7    11 ar  
    15     7    13 1   
    16     7    27 ar  
    17     8    10 ar  
    18     8    12 1   
    19     8    26 ar  
    20     9    25 1   
    21     9    30 1   
    22     9    31 1   
    23    10    11 ar  
    24    10    32 1   
    25    11    50 1   
    26    12    38 1   
    27    12    49 1   
    28    13    39 1   
    29    13    40 1   
    30    13    41 1   
    31    14    49 2   
    32    15    16 ar  
    33    15    42 1   
    34    16    17 ar  
    35    16    43 1   
    36    17    44 1   
    37    19    20 ar  
    38    19    24 ar  
    39    20    21 ar  
    40    21    22 ar  
    41    21    45 1   
    42    22    23 ar  
    43    22    46 1   
    44    23    24 ar  
    45    23    47 1   
    46    24    25 1   
    47    26    27 ar  
    48    26    51 1   
    49    27    48 1   
    50    33    50 1   
    51    34    50 1   
    52    35    50 1   
    53    36    51 1   
    54    37    51 1   
@<TRIPOS>SUBSTRUCTURE
     1 YVB         1 TEMP              0 ****  ****    0 ROOT
