@<TRIPOS>MOLECULE
YVB
   51    54     1     0     0
SMALL
No Charge or Current Charge


@<TRIPOS>ATOM
      1 N1          37.5260    12.2990    -8.2930 nc         1 YVB      -0.618100
      2 C7          40.9590    10.5080   -10.2610 ca         1 YVB      -0.153600
      3 C8          39.8440    11.1060    -9.6200 ca         1 YVB      -0.046000
      4 N2          36.4120    10.2980    -8.1390 na         1 YVB      -0.300600
      5 C9          38.7200    10.3380    -9.2290 ca         1 YVB      -0.127900
      6 O1          35.8590    16.0310    -6.7960 o          1 YVB      -0.622100
      7 C1          44.6920    16.0300   -11.0490 ca         1 YVB      -0.027300
      8 C5          43.0440    13.7490   -10.6660 ca         1 YVB      -0.127000
      9 N3          37.5950    15.1020    -7.7990 nt         1 YVB      -0.602000
     10 C4          43.0770    14.7870    -9.7140 ca         1 YVB      -0.058000
     11 C2          43.8960    15.9190    -9.8880 ca         1 YVB      -0.116300
     12 N           42.1460    12.6690   -10.3890 ns         1 YVB      -0.170000
     13 C           45.5910    17.2400   -11.2820 c3         1 YVB      -0.049800
     14 O           43.1250    10.7690   -11.2460 o          1 YVB      -0.566100
     15 C10         38.7230     8.9510    -9.4910 ca         1 YVB      -0.082000
     16 C11         39.8190     8.3490   -10.1260 ca         1 YVB      -0.120000
     17 C12         40.9280     9.1180   -10.5090 ca         1 YVB      -0.043000
     18 C13         37.5620    10.9760    -8.5590 cd         1 YVB       0.487400
     19 C14         36.2940    12.4720    -7.6740 ca         1 YVB       0.097400
     20 C15         35.6350    11.2760    -7.5860 ca         1 YVB      -0.090200
     21 C16         34.3690    11.1420    -7.0080 ca         1 YVB      -0.093000
     22 C17         33.7570    12.3010    -6.4990 ca         1 YVB      -0.105000
     23 C18         34.4190    13.5460    -6.5790 ca         1 YVB      -0.068000
     24 C19         35.7050    13.6590    -7.1700 ca         1 YVB      -0.101600
     25 C20         36.3760    15.0150    -7.2350 c          1 YVB       0.620700
     26 C21         43.8350    13.8760   -11.8380 ca         1 YVB       0.301000
     27 C22         44.6460    15.0070   -12.0140 ca         1 YVB      -0.174000
     28 H2          39.8380    12.1740    -9.4190 ha         1 YVB       0.134000
     29 H3          36.2180     9.3110    -8.2330 hn         1 YVB       0.362000
     30 H4          38.0630    15.9930    -7.8550 hn         1 YVB       0.328500
     31 H5          38.0170    14.2560    -8.1600 hn         1 YVB       0.328500
     32 H6          42.4600    14.7080    -8.8210 ha         1 YVB       0.116000
     33 H7          43.5780    17.9710    -9.2330 hc         1 YVB       0.039367
     34 H8          43.2290    16.7690    -7.9870 hc         1 YVB       0.039367
     35 H9          44.9050    17.1430    -8.3980 hc         1 YVB       0.039367
     36 H10         43.5580    11.9960   -12.5610 hn         1 YVB       0.446500
     37 H11         44.5230    13.0070   -13.5690 hn         1 YVB       0.446500
     38 H12         41.3290    12.9540    -9.8670 hn         1 YVB       0.154000
     39 H13         45.0040    18.1660   -11.3210 hc         1 YVB       0.043367
     40 H14         46.3310    17.3430   -10.4790 hc         1 YVB       0.043367
     41 H15         46.1430    17.1640   -12.2260 hc         1 YVB       0.043367
     42 H16         37.8800     8.3270    -9.2070 ha         1 YVB       0.110000
     43 H17         39.8100     7.2790   -10.3230 ha         1 YVB       0.124000
     44 H18         41.7660     8.6250   -11.0000 ha         1 YVB       0.142000
     45 H19         33.8710    10.1760    -6.9530 ha         1 YVB       0.121000
     46 H20         32.7720    12.2380    -6.0420 ha         1 YVB       0.121000
     47 H21         33.9250    14.4290    -6.1780 ha         1 YVB       0.143000
     48 H22         45.2460    15.0960   -12.9150 ha         1 YVB       0.112000
     49 C6          42.1750    11.3100   -10.6890 c          1 YVB       0.613700
     50 C3          43.9020    17.0090    -8.8190 c3         1 YVB      -0.036800
     51 N4          43.8190    12.9430   -12.8370 nv         1 YVB      -1.058000
@<TRIPOS>BOND
     1     1    18 2   
     2     1    19 1   
     3     2     3 ar  
     4     2    17 ar  
     5     2    49 1   
     6     3     5 ar  
     7     3    28 1   
     8     4    18 1   
     9     4    20 1   
    10     4    29 1   
    11     5    15 ar  
    12     5    18 1   
    13     6    25 2   
    14     7    11 ar  
    15     7    13 1   
    16     7    27 ar  
    17     8    10 ar  
    18     8    12 1   
    19     8    26 ar  
    20     9    25 1   
    21     9    30 1   
    22     9    31 1   
    23    10    11 ar  
    24    10    32 1   
    25    11    50 1   
    26    12    38 1   
    27    12    49 1   
    28    13    39 1   
    29    13    40 1   
    30    13    41 1   
    31    14    49 2   
    32    15    16 ar  
    33    15    42 1   
    34    16    17 ar  
    35    16    43 1   
    36    17    44 1   
    37    19    20 ar  
    38    19    24 ar  
    39    20    21 ar  
    40    21    22 ar  
    41    21    45 1   
    42    22    23 ar  
    43    22    46 1   
    44    23    24 ar  
    45    23    47 1   
    46    24    25 1   
    47    26    27 ar  
    48    26    51 1   
    49    27    48 1   
    50    33    50 1   
    51    34    50 1   
    52    35    50 1   
    53    36    51 1   
    54    37    51 1   
@<TRIPOS>SUBSTRUCTURE
     1 YVB         1 TEMP              0 ****  ****    0 ROOT
