@<TRIPOS>MOLECULE
YVC
   64    67     1     0     0
SMALL
abcg2


@<TRIPOS>ATOM
      1 C37        -24.5840   -11.2740    15.7870 c          1 YVC       0.697100
      2 C34        -28.7980   -11.4390    12.4930 c3         1 YVC       0.057800
      3 O33        -26.4360   -11.0790    12.6450 o          1 YVC      -0.541100
      4 N31        -27.2920   -12.9480    13.6100 ns         1 YVC      -0.505900
      5 C28        -24.4010   -13.5670    16.0070 c5         1 YVC       0.071000
      6 C30        -26.0650   -13.4910    14.1160 c3         1 YVC       0.089000
      7 C29        -25.8130   -13.1650    15.5840 c5         1 YVC       0.126300
      8 C15        -21.9650   -12.5590     5.2880 c3         1 YVC      -0.196100
      9 C01        -21.5740   -12.7860    16.9570 c3         1 YVC      -0.098100
     10 C02        -22.2750   -12.1830    15.7490 c3         1 YVC       0.193000
     11 C03        -21.8540   -12.7680    14.4160 ca         1 YVC      -0.128300
     12 C04        -22.1750   -12.0950    13.2280 ca         1 YVC      -0.058200
     13 C06        -22.8750   -10.6080    11.7020 cc         1 YVC      -0.028300
     14 C07        -23.5460    -9.3130    11.3030 c          1 YVC       0.727200
     15 C10        -22.3560   -11.6680    10.9860 cd         1 YVC      -0.171400
     16 C11        -22.2620   -11.8610     9.5380 ca         1 YVC       0.103200
     17 C12        -22.6850   -13.0660     8.9710 ca         1 YVC      -0.137000
     18 C13        -22.5830   -13.2870     7.6090 ca         1 YVC      -0.070000
     19 C14        -22.0540   -12.3220     6.7570 ca         1 YVC      -0.167300
     20 C17        -23.7650   -10.4520     4.6430 c3         1 YVC      -0.322100
     21 C20        -21.6310   -11.1380     7.3460 ca         1 YVC       0.165000
     22 C22        -21.7210   -10.8910     8.6970 ca         1 YVC      -0.107000
     23 C23        -21.8960   -12.6250    11.9510 ca         1 YVC      -0.084800
     24 C24        -21.2460   -13.8620    11.8550 ca         1 YVC      -0.068000
     25 C25        -20.9120   -14.5260    13.0150 ca         1 YVC      -0.167000
     26 C26        -21.2200   -13.9870    14.2770 ca         1 YVC      -0.116000
     27 C32        -27.3840   -11.8030    12.9190 c          1 YVC       0.589100
     28 F21        -21.1050   -10.1800     6.5610 f          1 YVC      -0.200000
     29 N05        -22.7630   -10.8850    13.0350 na         1 YVC      -0.185700
     30 N27        -23.7180   -12.3010    15.8730 n          1 YVC      -0.452800
     31 N35        -29.7330   -12.5400    12.6170 n8         1 YVC      -1.028200
     32 O08        -23.8340    -8.5630    12.2560 o          1 YVC      -0.692500
     33 O09        -23.7480    -9.1280    10.0930 o          1 YVC      -0.692500
     34 O18        -24.6030   -12.9050     5.1120 o          1 YVC      -0.537500
     35 O19        -23.2980   -12.4700     3.0110 o          1 YVC      -0.537500
     36 O36        -25.8420   -11.7480    15.7890 os         1 YVC      -0.405100
     37 O38        -24.3400   -10.0890    15.7230 o          1 YVC      -0.523000
     38 S16        -23.5170   -12.2020     4.4320 s6         1 YVC       1.060000
     39 H342       -29.1200   -10.6270    13.1500 h1         1 YVC       0.065200
     40 H341       -28.7320   -11.0080    11.4880 h1         1 YVC       0.065200
     41 H311       -28.1630   -13.4420    13.7550 hn         1 YVC       0.328500
     42 H1         -23.9760   -14.3250    15.3450 h1         1 YVC       0.054200
     43 H281       -24.3570   -13.9440    17.0310 h1         1 YVC       0.054200
     44 H301       -25.2310   -13.1300    13.5080 h1         1 YVC       0.066700
     45 H302       -26.0850   -14.5780    14.0150 h1         1 YVC       0.066700
     46 H2         -26.5840   -13.6080    16.2130 h1         1 YVC       0.070700
     47 H151       -21.7830   -13.6130     5.0640 h1         1 YVC       0.096200
     48 H152       -21.1930   -11.9710     4.7920 h1         1 YVC       0.096200
     49 H013       -21.8880   -12.2680    17.8620 hc         1 YVC       0.037367
     50 H012       -21.7930   -13.8460    17.0830 hc         1 YVC       0.037367
     51 H011       -20.4940   -12.6750    16.8610 hc         1 YVC       0.037367
     52 H021       -22.0550   -11.1130    15.7450 h1         1 YVC       0.085700
     53 H121       -23.1180   -13.8330     9.5990 ha         1 YVC       0.118000
     54 H131       -22.9170   -14.2300     7.1940 ha         1 YVC       0.107000
     55 H171       -23.9120   -10.2180     5.6940 h1         1 YVC       0.107033
     56 H172       -22.9130    -9.9090     4.2390 h1         1 YVC       0.107033
     57 H173       -24.6640   -10.1970     4.0830 h1         1 YVC       0.107033
     58 H221       -21.3650    -9.9500     9.0940 ha         1 YVC       0.155000
     59 H241       -21.0030   -14.2890    10.8900 ha         1 YVC       0.106000
     60 H251       -20.4070   -15.4820    12.9630 ha         1 YVC       0.092000
     61 H261       -20.9450   -14.5540    15.1570 ha         1 YVC       0.089000
     62 H051       -23.1010   -10.2420    13.7360 hn         1 YVC       0.392000
     63 H352       -30.6760   -12.1930    12.7100 hn         1 YVC       0.400000
     64 H3         -29.7160   -13.1130    11.7830 hn         1 YVC       0.400000
@<TRIPOS>BOND
     1     1    30 1   
     2     1    36 1   
     3     1    37 2   
     4     2    27 1   
     5     2    31 1   
     6     2    39 1   
     7     2    40 1   
     8     3    27 2   
     9     4     6 1   
    10     4    27 1   
    11     4    41 1   
    12     5     7 1   
    13     5    30 1   
    14     5    42 1   
    15     5    43 1   
    16     6     7 1   
    17     6    44 1   
    18     6    45 1   
    19     7    36 1   
    20     7    46 1   
    21     8    19 1   
    22     8    38 1   
    23     8    47 1   
    24     8    48 1   
    25     9    10 1   
    26     9    49 1   
    27     9    50 1   
    28     9    51 1   
    29    10    11 1   
    30    10    30 1   
    31    10    52 1   
    32    11    12 ar  
    33    11    26 ar  
    34    12    23 ar  
    35    12    29 1   
    36    13    14 1   
    37    13    15 2   
    38    13    29 1   
    39    14    32 1   
    40    14    33 1   
    41    15    16 1   
    42    15    23 1   
    43    16    17 ar  
    44    16    22 ar  
    45    17    18 ar  
    46    17    53 1   
    47    18    19 ar  
    48    18    54 1   
    49    19    21 ar  
    50    20    38 1   
    51    20    55 1   
    52    20    56 1   
    53    20    57 1   
    54    21    22 ar  
    55    21    28 1   
    56    22    58 1   
    57    23    24 ar  
    58    24    25 ar  
    59    24    59 1   
    60    25    26 ar  
    61    25    60 1   
    62    26    61 1   
    63    29    62 1   
    64    31    63 1   
    65    31    64 1   
    66    34    38 2   
    67    35    38 2   
@<TRIPOS>SUBSTRUCTURE
     1 YVC         1 TEMP              0 ****  ****    0 ROOT
