@<TRIPOS>MOLECULE
YVC
   64    67     1     0     0
SMALL
No Charge or Current Charge


@<TRIPOS>ATOM
      1 C37        -24.5030   -11.1430    15.7300 c          1 YVC       0.697100
      2 C34        -29.2300   -11.6550    13.1350 c3         1 YVC       0.057800
      3 O33        -26.7980   -11.4000    12.9370 o          1 YVC      -0.541100
      4 N31        -27.5660   -13.0860    14.2730 ns         1 YVC      -0.505900
      5 C28        -24.3540   -13.3940    16.4760 c5         1 YVC       0.071000
      6 C30        -26.2700   -13.5850    14.7550 c3         1 YVC       0.089000
      7 C29        -25.8110   -12.9840    16.1120 c5         1 YVC       0.126300
      8 C15        -21.5070   -12.4320     5.1150 c3         1 YVC      -0.196100
      9 C01        -21.3110   -12.7220    16.6950 c3         1 YVC      -0.098100
     10 C02        -22.2310   -12.1670    15.5830 c3         1 YVC       0.193000
     11 C03        -22.0370   -12.8380    14.2140 ca         1 YVC      -0.128300
     12 C04        -22.3580   -12.1540    13.0230 ca         1 YVC      -0.058200
     13 C06        -22.9890   -10.5370    11.5040 cc         1 YVC      -0.028300
     14 C07        -23.5290    -9.2530    10.9460 c          1 YVC       0.727200
     15 C10        -22.6070   -11.7050    10.8210 cd         1 YVC      -0.171400
     16 C11        -22.3410   -11.8670     9.3730 ca         1 YVC       0.103200
     17 C12        -22.6800   -13.0670     8.7170 ca         1 YVC      -0.137000
     18 C13        -22.4140   -13.2450     7.3490 ca         1 YVC      -0.070000
     19 C14        -21.7940   -12.2240     6.6080 ca         1 YVC      -0.167300
     20 C17        -23.3350   -10.3530     4.3770 c3         1 YVC      -0.322100
     21 C20        -21.4440   -11.0250     7.2630 ca         1 YVC       0.165000
     22 C22        -21.7140   -10.8500     8.6280 ca         1 YVC      -0.107000
     23 C23        -22.1980   -12.7170    11.7860 ca         1 YVC      -0.084800
     24 C24        -21.6780   -14.0120    11.6320 ca         1 YVC      -0.068000
     25 C25        -21.3650   -14.7380    12.7970 ca         1 YVC      -0.167000
     26 C26        -21.5490   -14.1630    14.0750 ca         1 YVC      -0.116000
     27 C32        -27.7380   -12.0100    13.4290 c          1 YVC       0.589100
     28 F21        -20.8330   -10.0300     6.5810 f          1 YVC      -0.200000
     29 N05        -22.8410   -10.8660    12.8670 na         1 YVC      -0.185700
     30 N27        -23.6490   -12.2060    15.9860 n          1 YVC      -0.452800
     31 N35        -30.1790   -12.8100    12.9160 n8         1 YVC      -1.028200
     32 O08        -23.7520    -8.3480    11.7410 o          1 YVC      -0.692500
     33 O09        -23.7810    -9.1450     9.7550 o          1 YVC      -0.692500
     34 O18        -24.0250   -12.9010     4.3570 o          1 YVC      -0.537500
     35 O19        -22.3750   -12.0740     2.6220 o          1 YVC      -0.537500
     36 O36        -25.7740   -11.5360    16.0120 os         1 YVC      -0.405100
     37 O38        -24.1750   -10.0360    15.3320 o          1 YVC      -0.523000
     38 S16        -22.8850   -12.0460     3.9990 s6         1 YVC       1.060000
     39 H342       -29.5900   -11.0680    13.9920 h1         1 YVC       0.065200
     40 H341       -29.2470   -11.0030    12.2500 h1         1 YVC       0.065200
     41 H311       -28.4200   -13.5400    14.5810 hn         1 YVC       0.328500
     42 H1         -24.0310   -14.3140    15.9710 h1         1 YVC       0.054200
     43 H281       -24.2240   -13.5140    17.5600 h1         1 YVC       0.054200
     44 H301       -25.5020   -13.3820    13.9960 h1         1 YVC       0.066700
     45 H302       -26.3390   -14.6750    14.8620 h1         1 YVC       0.066700
     46 H2         -26.5280   -13.2780    16.8900 h1         1 YVC       0.070700
     47 H151       -21.2490   -13.4790     4.9180 h1         1 YVC       0.096200
     48 H152       -20.6700   -11.8060     4.7870 h1         1 YVC       0.096200
     49 H013       -21.4050   -12.1130    17.6010 hc         1 YVC       0.037367
     50 H012       -21.5670   -13.7550    16.9580 hc         1 YVC       0.037367
     51 H011       -20.2620   -12.6930    16.3760 hc         1 YVC       0.037367
     52 H021       -21.9350   -11.1150    15.4670 h1         1 YVC       0.085700
     53 H121       -23.1870   -13.8580     9.2630 ha         1 YVC       0.118000
     54 H131       -22.6970   -14.1780     6.8650 ha         1 YVC       0.107000
     55 H171       -23.6620   -10.3200     5.4210 h1         1 YVC       0.107033
     56 H172       -22.4490    -9.7300     4.2190 h1         1 YVC       0.107033
     57 H173       -24.1460   -10.0680     3.6990 h1         1 YVC       0.107033
     58 H221       -21.4070    -9.9290     9.1110 ha         1 YVC       0.155000
     59 H241       -21.5070   -14.4520    10.6550 ha         1 YVC       0.106000
     60 H251       -20.9730   -15.7480    12.7120 ha         1 YVC       0.092000
     61 H261       -21.3010   -14.7600    14.9480 ha         1 YVC       0.089000
     62 H051       -23.1230   -10.2540    13.6290 hn         1 YVC       0.392000
     63 H352       -31.1150   -12.4480    12.6840 hn         1 YVC       0.400000
     64 H3         -29.9060   -13.3250    12.0670 hn         1 YVC       0.400000
@<TRIPOS>BOND
     1     1    30 1   
     2     1    36 1   
     3     1    37 2   
     4     2    27 1   
     5     2    31 1   
     6     2    39 1   
     7     2    40 1   
     8     3    27 2   
     9     4     6 1   
    10     4    27 1   
    11     4    41 1   
    12     5     7 1   
    13     5    30 1   
    14     5    42 1   
    15     5    43 1   
    16     6     7 1   
    17     6    44 1   
    18     6    45 1   
    19     7    36 1   
    20     7    46 1   
    21     8    19 1   
    22     8    38 1   
    23     8    47 1   
    24     8    48 1   
    25     9    10 1   
    26     9    49 1   
    27     9    50 1   
    28     9    51 1   
    29    10    11 1   
    30    10    30 1   
    31    10    52 1   
    32    11    12 ar  
    33    11    26 ar  
    34    12    23 ar  
    35    12    29 1   
    36    13    14 1   
    37    13    15 2   
    38    13    29 1   
    39    14    32 1   
    40    14    33 1   
    41    15    16 1   
    42    15    23 1   
    43    16    17 ar  
    44    16    22 ar  
    45    17    18 ar  
    46    17    53 1   
    47    18    19 ar  
    48    18    54 1   
    49    19    21 ar  
    50    20    38 1   
    51    20    55 1   
    52    20    56 1   
    53    20    57 1   
    54    21    22 ar  
    55    21    28 1   
    56    22    58 1   
    57    23    24 ar  
    58    24    25 ar  
    59    24    59 1   
    60    25    26 ar  
    61    25    60 1   
    62    26    61 1   
    63    29    62 1   
    64    31    63 1   
    65    31    64 1   
    66    34    38 2   
    67    35    38 2   
@<TRIPOS>SUBSTRUCTURE
     1 YVC         1 TEMP              0 ****  ****    0 ROOT
