@<TRIPOS>MOLECULE
YVD
   76    78     1     0     0
SMALL
No Charge or Current Charge


@<TRIPOS>ATOM
      1 C10         -7.1440   -11.8250    17.2550 c          1 YVD       0.564000
      2 C13        -10.9970   -15.1330    18.1630 c3         1 YVD      -0.086400
      3 C15        -12.8680   -16.8440    18.3910 c          1 YVD       0.591100
      4 C21        -14.5500   -19.0610    19.7290 c3         1 YVD      -0.121100
      5 C22         -8.3510    -9.9010    16.5370 c5         1 YVD       0.100000
      6 C24        -12.7570   -11.7400    26.3460 ca         1 YVD       0.176000
      7 C26        -13.8000   -12.1670    24.1920 ca         1 YVD      -0.083000
      8 C28        -11.3800   -12.3120    24.4250 ca         1 YVD      -0.083000
      9 C04        -11.8800   -11.6610    21.2420 c3         1 YVD       0.037700
     10 C05        -12.4110   -12.8010    22.1510 c3         1 YVD      -0.039100
     11 C07        -10.5690   -13.6460    18.1710 c3         1 YVD       0.106700
     12 C08         -9.0890   -13.4580    17.7580 c3         1 YVD      -0.071400
     13 C09         -8.5990   -11.9830    17.7160 c5         1 YVD      -0.156700
     14 C18        -11.8110   -12.1210    19.7590 c          1 YVD       0.588100
     15 C23         -9.3690   -11.0580    16.7320 c5         1 YVD      -0.092400
     16 C25        -13.9100   -11.8300    25.5530 ca         1 YVD      -0.149500
     17 C27        -12.5330   -12.4110    23.6220 ca         1 YVD      -0.102300
     18 C29        -11.4920   -11.9770    25.7870 ca         1 YVD      -0.149500
     19 C31        -13.4920    -8.2010    22.1340 c3         1 YVD       0.093500
     20 C33        -14.3960    -8.2890    23.3960 c3         1 YVD      -0.066100
     21 C34        -12.7730    -6.4800    26.9990 ca         1 YVD       0.177000
     22 C35        -13.7540    -5.8030    26.2590 ca         1 YVD      -0.145000
     23 C36        -14.2770    -6.3850    25.0900 ca         1 YVD      -0.079000
     24 C37        -13.8150    -7.6450    24.6550 ca         1 YVD      -0.105300
     25 C38        -12.8330    -8.3170    25.4100 ca         1 YVD      -0.079000
     26 C39        -12.3120    -7.7360    26.5790 ca         1 YVD      -0.145000
     27 N02        -12.7200   -10.4470    21.3720 ns         1 YVD      -0.496900
     28 N06        -10.8190   -13.0420    19.4840 ns         1 YVD      -0.497900
     29 N11         -7.0940   -10.6440    16.5660 ns         1 YVD      -0.514900
     30 N32        -12.9840    -6.7990    21.9430 n8         1 YVD      -0.981200
     31 O12         -6.2330   -12.6380    17.2570 o          1 YVD      -0.560000
     32 O16        -12.7030   -17.4890    19.5910 os         1 YVD      -0.453100
     33 O17        -13.1670   -17.3930    17.3390 o          1 YVD      -0.487000
     34 O19        -12.5740   -11.7080    18.8930 o          1 YVD      -0.606100
     35 H1         -10.7860   -15.5540    17.1720 hc         1 YVD       0.062200
     36 H131       -10.3810   -15.6930    18.8790 hc         1 YVD       0.062200
     37 H202       -12.5960   -19.3060    20.6120 h1         1 YVD       0.058200
     38 H201       -12.5920   -19.4590    18.8460 h1         1 YVD       0.058200
     39 H212       -14.8070   -20.1150    19.8880 hc         1 YVD       0.048367
     40 H211       -14.9780   -18.4770    20.5520 hc         1 YVD       0.048367
     41 H213       -15.0150   -18.7380    18.7910 hc         1 YVD       0.048367
     42 H222        -8.4040    -9.1750    17.3600 h1         1 YVD       0.046700
     43 H221        -8.5110    -9.3670    15.5910 h1         1 YVD       0.046700
     44 H261       -14.6980   -12.2390    23.5830 ha         1 YVD       0.116000
     45 H281       -10.3970   -12.4980    23.9960 ha         1 YVD       0.116000
     46 H041       -10.8530   -11.4210    21.5450 h1         1 YVD       0.078700
     47 H051       -13.3850   -13.1310    21.7680 hc         1 YVD       0.066200
     48 H052       -11.7490   -13.6710    22.0620 hc         1 YVD       0.066200
     49 H071       -11.1830   -13.1280    17.4210 h1         1 YVD       0.081700
     50 H081        -8.9440   -13.9140    16.7710 hc         1 YVD       0.060200
     51 H082        -8.4570   -14.0290    18.4510 hc         1 YVD       0.060200
     52 H091        -8.6590   -11.5430    18.7180 hc         1 YVD       0.095700
     53 H232       -10.3310   -10.7110    17.1260 hc         1 YVD       0.061700
     54 H231        -9.5650   -11.5640    15.7800 hc         1 YVD       0.061700
     55 H251       -14.8860   -11.6400    25.9920 ha         1 YVD       0.136000
     56 H291       -10.6030   -11.9010    26.4070 ha         1 YVD       0.136000
     57 H311       -14.1400    -8.4170    21.2730 h1         1 YVD       0.071700
     58 H331       -15.3590    -7.8210    23.1580 hc         1 YVD       0.053200
     59 H332       -14.6320    -9.3430    23.5910 hc         1 YVD       0.053200
     60 H351       -14.1090    -4.8310    26.5920 ha         1 YVD       0.132500
     61 H361       -15.0420    -5.8560    24.5250 ha         1 YVD       0.115000
     62 H381       -12.4720    -9.2900    25.0910 ha         1 YVD       0.115000
     63 H391       -11.5540    -8.2570    27.1580 ha         1 YVD       0.132500
     64 H021       -13.6040   -10.4250    20.8770 hn         1 YVD       0.322500
     65 H061       -10.2300   -13.3230    20.2580 hn         1 YVD       0.316500
     66 H111        -6.2330   -10.3830    16.0990 hn         1 YVD       0.325500
     67 H322       -13.7580    -6.1390    22.0780 hn         1 YVD       0.409500
     68 H321       -12.3510    -6.5810    22.7220 hn         1 YVD       0.409500
     69 C14        -12.4960   -15.3640    18.4930 c3         1 YVD      -0.138400
     70 F30        -12.8630   -11.4130    27.6530 f          1 YVD      -0.173000
     71 C01        -12.4000    -9.3350    22.1270 c          1 YVD       0.608100
     72 F40        -12.2730    -5.9210    28.1230 f          1 YVD      -0.178000
     73 O03        -11.3170    -9.2290    22.6930 o          1 YVD      -0.586100
     74 H141       -13.1100   -14.7910    17.7890 hc         1 YVD       0.073200
     75 C20        -13.0170   -18.8930    19.6860 c3         1 YVD       0.166600
     76 H142       -12.6730   -15.0290    19.5210 hc         1 YVD       0.073200
@<TRIPOS>BOND
     1     1    13 1   
     2     1    29 1   
     3     1    31 2   
     4     2    11 1   
     5     2    35 1   
     6     2    36 1   
     7     2    69 1   
     8     3    32 1   
     9     3    33 2   
    10     3    69 1   
    11     4    39 1   
    12     4    40 1   
    13     4    41 1   
    14     4    75 1   
    15     5    15 1   
    16     5    29 1   
    17     5    42 1   
    18     5    43 1   
    19     6    16 ar  
    20     6    18 ar  
    21     6    70 1   
    22     7    16 ar  
    23     7    17 ar  
    24     7    44 1   
    25     8    17 ar  
    26     8    18 ar  
    27     8    45 1   
    28     9    10 1   
    29     9    14 1   
    30     9    27 1   
    31     9    46 1   
    32    10    17 1   
    33    10    47 1   
    34    10    48 1   
    35    11    12 1   
    36    11    28 1   
    37    11    49 1   
    38    12    13 1   
    39    12    50 1   
    40    12    51 1   
    41    13    15 1   
    42    13    52 1   
    43    14    28 1   
    44    14    34 2   
    45    15    53 1   
    46    15    54 1   
    47    16    55 1   
    48    18    56 1   
    49    19    20 1   
    50    19    30 1   
    51    19    57 1   
    52    19    71 1   
    53    20    24 1   
    54    20    58 1   
    55    20    59 1   
    56    21    22 ar  
    57    21    26 ar  
    58    21    72 1   
    59    22    23 ar  
    60    22    60 1   
    61    23    24 ar  
    62    23    61 1   
    63    24    25 ar  
    64    25    26 ar  
    65    25    62 1   
    66    26    63 1   
    67    27    64 1   
    68    27    71 1   
    69    28    65 1   
    70    29    66 1   
    71    30    67 1   
    72    30    68 1   
    73    32    75 1   
    74    37    75 1   
    75    38    75 1   
    76    69    74 1   
    77    69    76 1   
    78    71    73 2   
@<TRIPOS>SUBSTRUCTURE
     1 YVD         1 TEMP              0 ****  ****    0 ROOT
