@<TRIPOS>MOLECULE
YVD
   76    78     1     0     0
SMALL
abcg2


@<TRIPOS>ATOM
      1 C10         -8.2280   -10.4760    17.6870 c          1 YVD       0.564000
      2 C13        -10.4810   -14.8190    18.9080 c3         1 YVD      -0.086400
      3 C15        -11.5470   -17.0420    19.4570 c          1 YVD       0.591100
      4 C21        -12.7430   -19.8880    18.8460 c3         1 YVD      -0.121100
      5 C22         -9.9390    -9.3500    16.5380 c5         1 YVD       0.100000
      6 C24        -14.2970   -11.8730    26.2920 ca         1 YVD       0.176000
      7 C26        -15.0460   -11.7290    24.0370 ca         1 YVD      -0.083000
      8 C28        -12.9970   -12.8520    24.5550 ca         1 YVD      -0.083000
      9 C04        -12.6930   -11.6930    21.5480 c3         1 YVD       0.037700
     10 C05        -13.6860   -12.6980    22.1450 c3         1 YVD      -0.039100
     11 C07        -10.7020   -13.3170    18.7360 c3         1 YVD       0.106700
     12 C08         -9.4060   -12.6340    18.2970 c3         1 YVD      -0.071400
     13 C09         -9.5380   -11.1340    18.1020 c5         1 YVD      -0.156700
     14 C18        -12.3660   -12.0970    20.1100 c          1 YVD       0.588100
     15 C23        -10.5100   -10.6880    17.0100 c5         1 YVD      -0.092400
     16 C25        -15.2410   -11.4420    25.3820 ca         1 YVD      -0.149500
     17 C27        -13.9270   -12.4340    23.6050 ca         1 YVD      -0.102300
     18 C29        -13.1730   -12.5770    25.9030 ca         1 YVD      -0.149500
     19 C31        -13.1880    -7.9450    21.6690 c3         1 YVD       0.093500
     20 C33        -13.6790    -7.8110    23.1350 c3         1 YVD      -0.066100
     21 C34        -10.4910    -8.0970    25.9680 ca         1 YVD       0.177000
     22 C35        -10.8010    -6.8610    25.4360 ca         1 YVD      -0.145000
     23 C36        -11.8460    -6.7730    24.5250 ca         1 YVD      -0.079000
     24 C37        -12.5740    -7.9000    24.1470 ca         1 YVD      -0.105300
     25 C38        -12.2270    -9.1270    24.7100 ca         1 YVD      -0.079000
     26 C39        -11.1890    -9.2380    25.6230 ca         1 YVD      -0.145000
     27 N02        -13.2420   -10.3650    21.5930 ns         1 YVD      -0.496900
     28 N06        -11.1980   -12.7390    19.9690 ns         1 YVD      -0.497900
     29 N11         -8.5250    -9.5130    16.7980 ns         1 YVD      -0.514900
     30 N32        -12.3440    -6.8710    21.2010 n8         1 YVD      -0.981200
     31 O12         -7.1150   -10.7610    18.0960 o          1 YVD      -0.560000
     32 O16        -12.6760   -17.6410    19.8190 os         1 YVD      -0.453100
     33 O17        -10.4910   -17.6120    19.3450 o          1 YVD      -0.487000
     34 O19        -13.1510   -11.8700    19.2030 o          1 YVD      -0.606100
     35 H1         -10.0360   -15.2070    17.9890 hc         1 YVD       0.062200
     36 H131        -9.7440   -14.9790    19.7000 hc         1 YVD       0.062200
     37 H202       -13.5150   -19.2160    20.7390 h1         1 YVD       0.058200
     38 H201       -11.7570   -19.3000    20.6770 h1         1 YVD       0.058200
     39 H212       -12.8010   -20.9400    19.1270 hc         1 YVD       0.048367
     40 H211       -13.6390   -19.6470    18.2740 hc         1 YVD       0.048367
     41 H213       -11.8740   -19.7640    18.2020 hc         1 YVD       0.048367
     42 H222       -10.3530    -8.5120    17.1070 h1         1 YVD       0.046700
     43 H221       -10.1260    -9.1630    15.4810 h1         1 YVD       0.046700
     44 H261       -15.7850   -11.4000    23.3170 ha         1 YVD       0.116000
     45 H281       -12.1190   -13.4030    24.2410 ha         1 YVD       0.116000
     46 H041       -11.7830   -11.7070    22.1540 h1         1 YVD       0.078700
     47 H051       -14.6240   -12.6580    21.5850 hc         1 YVD       0.066200
     48 H052       -13.2790   -13.7020    22.0080 hc         1 YVD       0.066200
     49 H071       -11.4690   -13.1530    17.9770 h1         1 YVD       0.081700
     50 H081        -9.0820   -13.0970    17.3600 hc         1 YVD       0.060200
     51 H082        -8.6250   -12.8410    19.0350 hc         1 YVD       0.060200
     52 H091        -9.8220   -10.6660    19.0540 hc         1 YVD       0.095700
     53 H232       -11.5370   -10.6010    17.3550 hc         1 YVD       0.061700
     54 H231       -10.4940   -11.4070    16.1860 hc         1 YVD       0.061700
     55 H251       -16.1140   -10.8940    25.7120 ha         1 YVD       0.136000
     56 H291       -12.4490   -12.9060    26.6380 ha         1 YVD       0.136000
     57 H311       -14.0860    -7.9650    21.0430 h1         1 YVD       0.071700
     58 H331       -14.1910    -6.8490    23.2160 hc         1 YVD       0.053200
     59 H332       -14.4310    -8.5770    23.3380 hc         1 YVD       0.053200
     60 H351       -10.2440    -5.9810    25.7290 ha         1 YVD       0.132500
     61 H361       -12.1040    -5.8040    24.1160 ha         1 YVD       0.115000
     62 H381       -12.7810   -10.0170    24.4380 ha         1 YVD       0.115000
     63 H391       -10.9330   -10.1950    26.0590 ha         1 YVD       0.132500
     64 H021       -14.2450   -10.2560    21.5970 hn         1 YVD       0.322500
     65 H061       -10.6150   -12.8490    20.7870 hn         1 YVD       0.316500
     66 H111        -7.8310    -8.8620    16.4650 hn         1 YVD       0.325500
     67 H322       -12.8090    -5.9870    21.3620 hn         1 YVD       0.409500
     68 H321       -11.4820    -6.8440    21.7320 hn         1 YVD       0.409500
     69 C14        -11.7640   -15.5710    19.2210 c3         1 YVD      -0.138400
     70 F30        -14.4770   -11.6060    27.5960 f          1 YVD      -0.173000
     71 C01        -12.4620    -9.2720    21.4960 c          1 YVD       0.608100
     72 F40         -9.4880    -8.1920    26.8590 f          1 YVD      -0.178000
     73 O03        -11.2540    -9.3460    21.3390 o          1 YVD      -0.586100
     74 H141       -12.4820   -15.4560    18.4030 hc         1 YVD       0.073200
     75 C20        -12.6480   -19.0480    20.1010 c3         1 YVD       0.166600
     76 H142       -12.2580   -15.1570    20.1050 hc         1 YVD       0.073200
@<TRIPOS>BOND
     1     1    13 1   
     2     1    29 1   
     3     1    31 2   
     4     2    11 1   
     5     2    35 1   
     6     2    36 1   
     7     2    69 1   
     8     3    32 1   
     9     3    33 2   
    10     3    69 1   
    11     4    39 1   
    12     4    40 1   
    13     4    41 1   
    14     4    75 1   
    15     5    15 1   
    16     5    29 1   
    17     5    42 1   
    18     5    43 1   
    19     6    16 ar  
    20     6    18 ar  
    21     6    70 1   
    22     7    16 ar  
    23     7    17 ar  
    24     7    44 1   
    25     8    17 ar  
    26     8    18 ar  
    27     8    45 1   
    28     9    10 1   
    29     9    14 1   
    30     9    27 1   
    31     9    46 1   
    32    10    17 1   
    33    10    47 1   
    34    10    48 1   
    35    11    12 1   
    36    11    28 1   
    37    11    49 1   
    38    12    13 1   
    39    12    50 1   
    40    12    51 1   
    41    13    15 1   
    42    13    52 1   
    43    14    28 1   
    44    14    34 2   
    45    15    53 1   
    46    15    54 1   
    47    16    55 1   
    48    18    56 1   
    49    19    20 1   
    50    19    30 1   
    51    19    57 1   
    52    19    71 1   
    53    20    24 1   
    54    20    58 1   
    55    20    59 1   
    56    21    22 ar  
    57    21    26 ar  
    58    21    72 1   
    59    22    23 ar  
    60    22    60 1   
    61    23    24 ar  
    62    23    61 1   
    63    24    25 ar  
    64    25    26 ar  
    65    25    62 1   
    66    26    63 1   
    67    27    64 1   
    68    27    71 1   
    69    28    65 1   
    70    29    66 1   
    71    30    67 1   
    72    30    68 1   
    73    32    75 1   
    74    37    75 1   
    75    38    75 1   
    76    69    74 1   
    77    69    76 1   
    78    71    73 2   
@<TRIPOS>SUBSTRUCTURE
     1 YVD         1 TEMP              0 ****  ****    0 ROOT
