@<TRIPOS>MOLECULE
YVF
   48    50     1     0     0
SMALL
abcg2


@<TRIPOS>ATOM
      1 C01        144.7050   145.1920   176.2900 c3         1 YVF       0.151900
      2 C03        145.4150   144.8700   174.0780 c          1 YVF       0.605100
      3 C04        145.0450   145.0800   172.5970 c3         1 YVF       0.163700
      4 C05        145.1500   146.5710   172.3630 cc         1 YVF      -0.255300
      5 C06        144.2020   147.5260   172.5910 cd         1 YVF      -0.103000
      6 C07        144.6650   148.8390   172.3130 cd         1 YVF      -0.137000
      7 C08        145.9590   148.8590   171.8940 cc         1 YVF      -0.243000
      8 C10        145.9950   144.2910   171.6960 c3         1 YVF      -0.106100
      9 C13        141.7950   143.2180   172.3470 cc         1 YVF       0.207500
     10 C16        139.0310   144.0810   170.4820 ca         1 YVF       0.003800
     11 C17        138.7960   145.4390   170.6610 ca         1 YVF      -0.044000
     12 C18        137.8870   146.0820   169.8370 ca         1 YVF      -0.189300
     13 C19        137.6090   147.5470   169.9880 c3         1 YVF       0.359300
     14 C23        137.2080   145.3760   168.8480 ca         1 YVF      -0.058000
     15 C24        137.4520   144.0240   168.6830 ca         1 YVF      -0.106000
     16 C25        138.3720   143.3710   169.4910 ca         1 YVF      -0.084000
     17 C26        139.8340   142.2730   172.0090 cd         1 YVF      -0.134300
     18 C27        138.6050   141.4370   172.0080 c3         1 YVF      -0.031800
     19 C28        141.0150   142.1020   172.6890 cc         1 YVF      -0.164000
     20 F20        138.2710   148.1000   171.0060 f          1 YVF      -0.110333
     21 F21        136.3060   147.7790   170.1940 f          1 YVF      -0.110333
     22 F22        137.9460   148.2250   168.8820 f          1 YVF      -0.110333
     23 N11        143.6720   144.6890   172.3610 ns         1 YVF      -0.484900
     24 N14        141.1510   144.0180   171.5210 nd         1 YVF      -0.511800
     25 N15        139.9740   143.4390   171.3160 na         1 YVF       0.228000
     26 O02        144.4640   145.2910   174.8870 os         1 YVF      -0.422100
     27 O29        143.7820   142.7570   173.5300 o          1 YVF      -0.593100
     28 O30        146.4870   144.4620   174.4380 o          1 YVF      -0.477000
     29 S09        146.6210   147.2840   171.8220 ss         1 YVF       0.237000
     30 H1         143.8080   145.5700   176.7730 h1         1 YVF       0.048033
     31 H2         144.8700   144.1580   176.5920 h1         1 YVF       0.048033
     32 H3         145.5600   145.7970   176.5910 h1         1 YVF       0.048033
     33 H4         143.2050   147.3070   172.9470 ha         1 YVF       0.144000
     34 H5         144.0590   149.7270   172.4230 ha         1 YVF       0.136000
     35 H6         146.5580   149.7120   171.6150 h4         1 YVF       0.152000
     36 H7         145.8990   143.2230   171.8830 hc         1 YVF       0.059700
     37 H8         145.7440   144.4820   170.6530 hc         1 YVF       0.059700
     38 H9         147.0380   144.5600   171.8540 hc         1 YVF       0.059700
     39 H10        139.3220   145.9690   171.4430 ha         1 YVF       0.154000
     40 H11        136.4940   145.8700   168.2020 ha         1 YVF       0.135000
     41 H12        136.9360   143.4730   167.9090 ha         1 YVF       0.129000
     42 H13        138.5830   142.3220   169.3300 ha         1 YVF       0.133000
     43 H14        138.5350   140.8150   171.1150 hc         1 YVF       0.055700
     44 H15        138.6230   140.7740   172.8700 hc         1 YVF       0.055700
     45 H16        137.7000   142.0420   172.0640 hc         1 YVF       0.055700
     46 H17        141.2670   141.2900   173.3500 ha         1 YVF       0.165000
     47 H18        143.1370   145.2200   171.6880 hn         1 YVF       0.343500
     48 C12        143.1680   143.5220   172.8010 c          1 YVF       0.535600
@<TRIPOS>BOND
     1     1    26 1   
     2     1    30 1   
     3     1    31 1   
     4     1    32 1   
     5     2     3 1   
     6     2    26 1   
     7     2    28 2   
     8     3     4 1   
     9     3     8 1   
    10     3    23 1   
    11     4     5 2   
    12     4    29 1   
    13     5     6 1   
    14     5    33 1   
    15     6     7 2   
    16     6    34 1   
    17     7    29 1   
    18     7    35 1   
    19     8    36 1   
    20     8    37 1   
    21     8    38 1   
    22     9    19 1   
    23     9    24 2   
    24     9    48 1   
    25    10    11 ar  
    26    10    16 ar  
    27    10    25 1   
    28    11    12 ar  
    29    11    39 1   
    30    12    13 1   
    31    12    14 ar  
    32    13    20 1   
    33    13    21 1   
    34    13    22 1   
    35    14    15 ar  
    36    14    40 1   
    37    15    16 ar  
    38    15    41 1   
    39    16    42 1   
    40    17    18 1   
    41    17    19 2   
    42    17    25 1   
    43    18    43 1   
    44    18    44 1   
    45    18    45 1   
    46    19    46 1   
    47    23    47 1   
    48    23    48 1   
    49    24    25 1   
    50    27    48 2   
@<TRIPOS>SUBSTRUCTURE
     1 YVF         1 TEMP              0 ****  ****    0 ROOT
