@<TRIPOS>MOLECULE
YVF
   48    50     1     0     0
SMALL
No Charge or Current Charge


@<TRIPOS>ATOM
      1 C01        144.3830   145.6690   176.4720 c3         1 YVF       0.151900
      2 C03        145.4170   144.8990   174.4300 c          1 YVF       0.605100
      3 C04        145.3260   144.9550   172.8540 c3         1 YVF       0.163700
      4 C05        145.6340   146.3370   172.3070 cc         1 YVF      -0.255300
      5 C06        145.3170   146.8480   171.0690 cd         1 YVF      -0.103000
      6 C07        145.7710   148.1780   170.8650 cd         1 YVF      -0.137000
      7 C08        146.4450   148.6970   171.9400 cc         1 YVF      -0.243000
      8 C10        146.3280   143.9610   172.2080 c3         1 YVF      -0.106100
      9 C13        141.8670   143.4380   172.1870 cc         1 YVF       0.207500
     10 C16        139.0530   144.4390   170.4430 ca         1 YVF       0.003800
     11 C17        138.1000   145.2610   171.0740 ca         1 YVF      -0.044000
     12 C18        137.0550   145.8540   170.3320 ca         1 YVF      -0.189300
     13 C19        136.0140   146.7360   171.0300 c3         1 YVF       0.359300
     14 C23        136.9720   145.5990   168.9450 ca         1 YVF      -0.058000
     15 C24        137.9250   144.7810   168.3130 ca         1 YVF      -0.106000
     16 C25        138.9650   144.2040   169.0590 ca         1 YVF      -0.084000
     17 C26        139.8260   142.6080   171.7650 cd         1 YVF      -0.134300
     18 C27        138.5550   141.7990   171.6640 c3         1 YVF      -0.031800
     19 C28        140.9960   142.3440   172.4110 cc         1 YVF      -0.164000
     20 F20        136.5430   147.4320   172.0620 f          1 YVF      -0.110333
     21 F21        135.0010   145.9940   171.5320 f          1 YVF      -0.110333
     22 F22        135.4610   147.6450   170.1950 f          1 YVF      -0.110333
     23 N11        143.9510   144.6150   172.4450 ns         1 YVF      -0.484900
     24 N14        141.3240   144.3910   171.4340 nd         1 YVF      -0.511800
     25 N15        140.0760   143.8560   171.1880 na         1 YVF       0.228000
     26 O02        144.4210   145.6330   175.0350 os         1 YVF      -0.422100
     27 O29        143.7350   142.5790   173.4610 o          1 YVF      -0.593100
     28 O30        146.2790   144.2870   175.0530 o          1 YVF      -0.477000
     29 S09        146.5460   147.5240   173.2470 ss         1 YVF       0.237000
     30 H1         143.5430   146.2860   176.8160 h1         1 YVF       0.048033
     31 H2         144.2560   144.6600   176.8850 h1         1 YVF       0.048033
     32 H3         145.3080   146.0980   176.8780 h1         1 YVF       0.048033
     33 H4         144.7760   146.2900   170.3090 ha         1 YVF       0.144000
     34 H5         145.6020   148.7300   169.9450 ha         1 YVF       0.136000
     35 H6         146.8950   149.6740   172.0620 h4         1 YVF       0.152000
     36 H7         146.1800   142.9400   172.5770 hc         1 YVF       0.059700
     37 H8         146.2140   143.9480   171.1180 hc         1 YVF       0.059700
     38 H9         147.3600   144.2540   172.4360 hc         1 YVF       0.059700
     39 H10        138.1770   145.4320   172.1470 ha         1 YVF       0.154000
     40 H11        136.1690   146.0310   168.3500 ha         1 YVF       0.135000
     41 H12        137.8550   144.5930   167.2440 ha         1 YVF       0.129000
     42 H13        139.7000   143.5700   168.5660 ha         1 YVF       0.133000
     43 H14        138.3190   141.5630   170.6200 hc         1 YVF       0.055700
     44 H15        138.6460   140.8510   172.2070 hc         1 YVF       0.055700
     45 H16        137.7040   142.3450   172.0880 hc         1 YVF       0.055700
     46 H17        141.2390   141.4630   172.9960 ha         1 YVF       0.165000
     47 H18        143.4390   145.2950   171.8950 hn         1 YVF       0.343500
     48 C12        143.2530   143.4660   172.7660 c          1 YVF       0.535600
@<TRIPOS>BOND
     1     1    26 1   
     2     1    30 1   
     3     1    31 1   
     4     1    32 1   
     5     2     3 1   
     6     2    26 1   
     7     2    28 2   
     8     3     4 1   
     9     3     8 1   
    10     3    23 1   
    11     4     5 2   
    12     4    29 1   
    13     5     6 1   
    14     5    33 1   
    15     6     7 2   
    16     6    34 1   
    17     7    29 1   
    18     7    35 1   
    19     8    36 1   
    20     8    37 1   
    21     8    38 1   
    22     9    19 1   
    23     9    24 2   
    24     9    48 1   
    25    10    11 ar  
    26    10    16 ar  
    27    10    25 1   
    28    11    12 ar  
    29    11    39 1   
    30    12    13 1   
    31    12    14 ar  
    32    13    20 1   
    33    13    21 1   
    34    13    22 1   
    35    14    15 ar  
    36    14    40 1   
    37    15    16 ar  
    38    15    41 1   
    39    16    42 1   
    40    17    18 1   
    41    17    19 2   
    42    17    25 1   
    43    18    43 1   
    44    18    44 1   
    45    18    45 1   
    46    19    46 1   
    47    23    47 1   
    48    23    48 1   
    49    24    25 1   
    50    27    48 2   
@<TRIPOS>SUBSTRUCTURE
     1 YVF         1 TEMP              0 ****  ****    0 ROOT
