@<TRIPOS>MOLECULE
YVG
   76    78     1     0     0
SMALL
abcg2


@<TRIPOS>ATOM
      1 C10         27.6430   -10.3730     4.7190 c          1 YVG       0.567000
      2 C13         29.5960   -15.0150     4.4070 c3         1 YVG      -0.082400
      3 C15         30.5190   -17.3640     4.3750 c          1 YVG       0.592100
      4 C20         31.4940   -19.5250     4.3500 c3         1 YVG       0.167600
      5 C21         32.8670   -20.1220     4.1590 c3         1 YVG      -0.097100
      6 C22         29.4160    -9.1360     5.6350 c5         1 YVG       0.101000
      7 C24         33.6120   -12.7400    -3.3870 ca         1 YVG      -0.103000
      8 C26         34.3680   -12.5780    -1.1080 ca         1 YVG      -0.107000
      9 C28         32.2520   -13.5910    -1.5930 ca         1 YVG      -0.107000
     10 C01         31.8890    -9.8810     1.3210 c          1 YVG       0.602100
     11 C04         32.0040   -12.3160     1.3600 c3         1 YVG       0.038700
     12 C05         32.9500   -13.3920     0.8110 c3         1 YVG      -0.039100
     13 C07         29.9230   -13.5260     4.3190 c3         1 YVG       0.105700
     14 C08         28.6750   -12.6840     4.5940 c3         1 YVG      -0.074400
     15 C09         28.9080   -11.1870     4.4930 c5         1 YVG      -0.159700
     16 C23         29.8930   -10.5830     5.4940 c5         1 YVG      -0.091400
     17 C25         34.5710   -12.3490    -2.4640 ca         1 YVG      -0.106500
     18 C27         33.2070   -13.1980    -0.6570 ca         1 YVG      -0.086300
     19 C29         32.4520   -13.3660    -2.9480 ca         1 YVG      -0.106500
     20 C30         32.7020    -8.6050     1.1330 c3         1 YVG       0.096500
     21 C32         33.1990    -8.5020    -0.3240 c3         1 YVG      -0.018100
     22 C33         30.0270    -8.6660    -3.2280 ca         1 YVG      -0.105000
     23 C34         30.6730    -9.8290    -2.8280 ca         1 YVG      -0.111500
     24 C35         31.7020    -9.7700    -1.8980 ca         1 YVG      -0.091000
     25 C36         32.1020    -8.5530    -1.3480 ca         1 YVG      -0.077300
     26 C37         31.4490    -7.3930    -1.7610 ca         1 YVG      -0.091000
     27 C38         30.4220    -7.4470    -2.6930 ca         1 YVG      -0.111500
     28 N02         32.6090   -11.0170     1.2380 ns         1 YVG      -0.496900
     29 N06         30.4840   -13.1950     3.0230 ns         1 YVG      -0.497900
     30 N11         27.9960    -9.2580     5.3830 ns         1 YVG      -0.514900
     31 N31         31.8950    -7.4540     1.4680 n8         1 YVG      -0.974200
     32 O03         30.6840    -9.8840     1.5120 o          1 YVG      -0.580100
     33 O12         26.5180   -10.6660     4.3510 o          1 YVG      -0.557000
     34 O16         31.6120   -18.1000     4.2190 os         1 YVG      -0.454100
     35 O17         29.4320   -17.8290     4.6170 o          1 YVG      -0.490000
     36 O19         32.4760   -12.3480     3.7080 o          1 YVG      -0.611100
     37 H1          28.8290   -15.2580     3.6650 hc         1 YVG       0.062200
     38 H2          29.1540   -15.2070     5.3860 hc         1 YVG       0.062200
     39 H201        31.0950   -19.7720     5.3370 h1         1 YVG       0.048200
     40 H202        30.7960   -19.9070     3.6030 h1         1 YVG       0.048200
     41 H213        32.8020   -21.2060     4.2560 hc         1 YVG       0.046700
     42 H212        33.2680   -19.8990     3.1710 hc         1 YVG       0.046700
     43 H211        33.5700   -19.7620     4.9100 hc         1 YVG       0.046700
     44 H222        29.6060    -8.7230     6.6250 h1         1 YVG       0.042700
     45 H221        29.8950    -8.4820     4.9000 h1         1 YVG       0.042700
     46 H241        33.7670   -12.5620    -4.4430 ha         1 YVG       0.117000
     47 H261        35.1240   -12.2730    -0.3940 ha         1 YVG       0.109000
     48 H281        31.3440   -14.0810    -1.2580 ha         1 YVG       0.109000
     49 H041        31.0890   -12.3260     0.7620 h1         1 YVG       0.080700
     50 H051        32.4950   -14.3680     0.9910 hc         1 YVG       0.063700
     51 H052        33.8870   -13.3700     1.3740 hc         1 YVG       0.063700
     52 H071        30.6880   -13.2920     5.0630 h1         1 YVG       0.080700
     53 H082        27.8870   -12.9760     3.8930 hc         1 YVG       0.060700
     54 H081        28.3090   -12.9340     5.5950 hc         1 YVG       0.060700
     55 H091        29.2410   -10.9430     3.4770 hc         1 YVG       0.097700
     56 H141        31.2480   -15.7470     3.2150 hc         1 YVG       0.074700
     57 H142        31.6070   -15.6240     4.9160 hc         1 YVG       0.074700
     58 H232        29.8110   -11.0970     6.4550 hc         1 YVG       0.061200
     59 H231        30.9290   -10.6450     5.1690 hc         1 YVG       0.061200
     60 H251        35.4800   -11.8640    -2.7970 ha         1 YVG       0.115500
     61 H291        31.7010   -13.6790    -3.6620 ha         1 YVG       0.115500
     62 H301        33.6030    -8.7000     1.7600 h1         1 YVG       0.021700
     63 H321        33.9200    -9.3000    -0.5110 hc         1 YVG       0.046200
     64 H322        33.7540    -7.5640    -0.4110 hc         1 YVG       0.046200
     65 H341        30.3800   -10.7850    -3.2440 ha         1 YVG       0.109000
     66 H351        32.2060   -10.6840    -1.6030 ha         1 YVG       0.111000
     67 H371        31.7530    -6.4360    -1.3530 ha         1 YVG       0.111000
     68 H381        29.9290    -6.5340    -3.0030 ha         1 YVG       0.109000
     69 H021        33.6150   -10.9560     1.2120 hn         1 YVG       0.321500
     70 H061        29.8850   -13.3310     2.2220 hn         1 YVG       0.317500
     71 H111        27.3480    -8.5010     5.5390 hn         1 YVG       0.325500
     72 H311        31.5820    -7.5110     2.4290 hn         1 YVG       0.402000
     73 H3          32.4710    -6.6240     1.4070 hn         1 YVG       0.402000
     74 C14         30.8170   -15.8970     4.2090 c3         1 YVG      -0.136400
     75 C18         31.6760   -12.6120     2.8250 c          1 YVG       0.586100
     76 H331        29.2270    -8.7090    -3.9560 ha         1 YVG       0.109000
@<TRIPOS>BOND
     1     1    15 1   
     2     1    30 1   
     3     1    33 2   
     4     2    13 1   
     5     2    37 1   
     6     2    38 1   
     7     2    74 1   
     8     3    34 1   
     9     3    35 2   
    10     3    74 1   
    11     4     5 1   
    12     4    34 1   
    13     4    39 1   
    14     4    40 1   
    15     5    41 1   
    16     5    42 1   
    17     5    43 1   
    18     6    16 1   
    19     6    30 1   
    20     6    44 1   
    21     6    45 1   
    22     7    17 ar  
    23     7    19 ar  
    24     7    46 1   
    25     8    17 ar  
    26     8    18 ar  
    27     8    47 1   
    28     9    18 ar  
    29     9    19 ar  
    30     9    48 1   
    31    10    20 1   
    32    10    28 1   
    33    10    32 2   
    34    11    12 1   
    35    11    28 1   
    36    11    49 1   
    37    11    75 1   
    38    12    18 1   
    39    12    50 1   
    40    12    51 1   
    41    13    14 1   
    42    13    29 1   
    43    13    52 1   
    44    14    15 1   
    45    14    53 1   
    46    14    54 1   
    47    15    16 1   
    48    15    55 1   
    49    16    58 1   
    50    16    59 1   
    51    17    60 1   
    52    19    61 1   
    53    20    21 1   
    54    20    31 1   
    55    20    62 1   
    56    21    25 1   
    57    21    63 1   
    58    21    64 1   
    59    22    23 ar  
    60    22    27 ar  
    61    22    76 1   
    62    23    24 ar  
    63    23    65 1   
    64    24    25 ar  
    65    24    66 1   
    66    25    26 ar  
    67    26    27 ar  
    68    26    67 1   
    69    27    68 1   
    70    28    69 1   
    71    29    70 1   
    72    29    75 1   
    73    30    71 1   
    74    31    72 1   
    75    31    73 1   
    76    36    75 2   
    77    56    74 1   
    78    57    74 1   
@<TRIPOS>SUBSTRUCTURE
     1 YVG         1 TEMP              0 ****  ****    0 ROOT
