@<TRIPOS>MOLECULE
YVG
   76    78     1     0     0
SMALL
No Charge or Current Charge


@<TRIPOS>ATOM
      1 C10         26.3800   -11.7870     5.3340 c          1 YVG       0.567000
      2 C13         30.2850   -15.1540     5.1560 c3         1 YVG      -0.082400
      3 C15         32.1600   -16.8680     5.2860 c          1 YVG       0.592100
      4 C20         32.4520   -19.0410     4.2920 c3         1 YVG       0.167600
      5 C21         32.3820   -19.6650     2.8890 c3         1 YVG      -0.097100
      6 C22         27.5330    -9.7780     5.8890 c5         1 YVG       0.101000
      7 C24         32.6620   -12.8300    -3.2460 ca         1 YVG      -0.103000
      8 C26         33.5310   -12.9410    -0.9750 ca         1 YVG      -0.107000
      9 C28         31.1450   -13.1890    -1.3750 ca         1 YVG      -0.107000
     10 C01         32.0130    -9.8950     0.6230 c          1 YVG       0.602100
     11 C04         31.4150   -12.1030     1.7340 c3         1 YVG       0.038700
     12 C05         31.9960   -13.3500     1.0170 c3         1 YVG      -0.039100
     13 C07         29.8620   -13.6830     4.9240 c3         1 YVG       0.105700
     14 C08         28.3550   -13.4560     5.1950 c3         1 YVG      -0.074400
     15 C09         27.8660   -11.9910     5.0100 c5         1 YVG      -0.159700
     16 C23         28.5600   -10.9420     5.9230 c5         1 YVG      -0.091400
     17 C25         33.7470   -12.7810    -2.3540 ca         1 YVG      -0.106500
     18 C27         32.2290   -13.1480    -0.4770 ca         1 YVG      -0.086300
     19 C29         31.3610   -13.0300    -2.7560 ca         1 YVG      -0.106500
     20 C30         33.1320    -8.7870     0.5490 c3         1 YVG       0.096500
     21 C32         33.9820    -8.9230    -0.7460 c3         1 YVG      -0.018100
     22 C33         32.1460    -7.4590    -4.4120 ca         1 YVG      -0.105000
     23 C34         31.8630    -8.7560    -3.9510 ca         1 YVG      -0.111500
     24 C35         32.4510    -9.2230    -2.7630 ca         1 YVG      -0.091000
     25 C36         33.3220    -8.4000    -2.0230 ca         1 YVG      -0.077300
     26 C37         33.6060    -7.1020    -2.4950 ca         1 YVG      -0.091000
     27 C38         33.0180    -6.6330    -3.6830 ca         1 YVG      -0.111500
     28 N02         32.2770   -10.9180     1.5130 ns         1 YVG      -0.496900
     29 N06         30.2140   -13.2490     3.5680 ns         1 YVG      -0.497900
     30 N11         26.2800   -10.5280     5.8590 ns         1 YVG      -0.514900
     31 N31         32.6850    -7.3690     0.7800 n8         1 YVG      -0.974200
     32 O03         30.9590    -9.8400    -0.0010 o          1 YVG      -0.580100
     33 O12         25.4700   -12.6000     5.3660 o          1 YVG      -0.557000
     34 O16         32.1570   -17.6410     4.1540 os         1 YVG      -0.454100
     35 O17         32.3740   -17.2910     6.4140 o          1 YVG      -0.490000
     36 O19         31.9320   -11.8520     4.1150 o          1 YVG      -0.611100
     37 H1          29.7270   -15.8040     4.4690 hc         1 YVG       0.062200
     38 H2          29.9940   -15.4480     6.1720 hc         1 YVG       0.062200
     39 H201        33.4560   -19.1910     4.7100 h1         1 YVG       0.048200
     40 H202        31.7220   -19.5330     4.9480 h1         1 YVG       0.048200
     41 H213        32.6000   -20.7380     2.9400 hc         1 YVG       0.046700
     42 H212        31.3810   -19.5380     2.4590 hc         1 YVG       0.046700
     43 H211        33.1140   -19.1960     2.2210 hc         1 YVG       0.046700
     44 H222        27.6200    -9.1260     6.7680 h1         1 YVG       0.042700
     45 H221        27.6510    -9.1630     4.9860 h1         1 YVG       0.042700
     46 H241        32.8290   -12.7070    -4.3140 ha         1 YVG       0.117000
     47 H261        34.3780   -12.9060    -0.2930 ha         1 YVG       0.109000
     48 H281        30.1350   -13.3470    -1.0050 ha         1 YVG       0.109000
     49 H041        30.4150   -11.9000     1.3280 h1         1 YVG       0.080700
     50 H051        31.3180   -14.1990     1.1660 hc         1 YVG       0.063700
     51 H052        32.9350   -13.6320     1.5090 hc         1 YVG       0.063700
     52 H071        30.4170   -13.0690     5.6470 h1         1 YVG       0.080700
     53 H082        27.7770   -14.1160     4.5340 hc         1 YVG       0.060700
     54 H081        28.1330   -13.7840     6.2180 hc         1 YVG       0.060700
     55 H091        28.0030   -11.6820     3.9670 hc         1 YVG       0.097700
     56 H141        32.0660   -15.2010     3.9360 hc         1 YVG       0.074700
     57 H142        32.3610   -14.7560     5.6580 hc         1 YVG       0.074700
     58 H232        28.6810   -11.3210     6.9450 hc         1 YVG       0.061200
     59 H231        29.5510   -10.6410     5.5620 hc         1 YVG       0.061200
     60 H251        34.7540   -12.6210    -2.7320 ha         1 YVG       0.115500
     61 H291        30.5190   -13.0640    -3.4440 ha         1 YVG       0.115500
     62 H301        33.8170    -9.0090     1.3790 h1         1 YVG       0.021700
     63 H321        34.2560    -9.9770    -0.8760 hc         1 YVG       0.046200
     64 H322        34.9320    -8.3980    -0.5890 hc         1 YVG       0.046200
     65 H341        31.1900    -9.3990    -4.5130 ha         1 YVG       0.109000
     66 H351        32.2260   -10.2270    -2.4140 ha         1 YVG       0.111000
     67 H371        34.2820    -6.4550    -1.9410 ha         1 YVG       0.111000
     68 H381        33.2400    -5.6290    -4.0400 ha         1 YVG       0.109000
     69 H021        33.1380   -10.8500     2.0430 hn         1 YVG       0.321500
     70 H061        29.6810   -13.6260     2.7940 hn         1 YVG       0.317500
     71 H111        25.3860   -10.2160     6.2220 hn         1 YVG       0.325500
     72 H311        32.2870    -7.2830     1.7240 hn         1 YVG       0.402000
     73 H3          33.5040    -6.7510     0.8040 hn         1 YVG       0.402000
     74 C14         31.8050   -15.4130     4.9790 c3         1 YVG      -0.136400
     75 C18         31.2320   -12.3710     3.2540 c          1 YVG       0.586100
     76 H331        31.6920    -7.0960    -5.3310 ha         1 YVG       0.109000
@<TRIPOS>BOND
     1     1    15 1   
     2     1    30 1   
     3     1    33 2   
     4     2    13 1   
     5     2    37 1   
     6     2    38 1   
     7     2    74 1   
     8     3    34 1   
     9     3    35 2   
    10     3    74 1   
    11     4     5 1   
    12     4    34 1   
    13     4    39 1   
    14     4    40 1   
    15     5    41 1   
    16     5    42 1   
    17     5    43 1   
    18     6    16 1   
    19     6    30 1   
    20     6    44 1   
    21     6    45 1   
    22     7    17 ar  
    23     7    19 ar  
    24     7    46 1   
    25     8    17 ar  
    26     8    18 ar  
    27     8    47 1   
    28     9    18 ar  
    29     9    19 ar  
    30     9    48 1   
    31    10    20 1   
    32    10    28 1   
    33    10    32 2   
    34    11    12 1   
    35    11    28 1   
    36    11    49 1   
    37    11    75 1   
    38    12    18 1   
    39    12    50 1   
    40    12    51 1   
    41    13    14 1   
    42    13    29 1   
    43    13    52 1   
    44    14    15 1   
    45    14    53 1   
    46    14    54 1   
    47    15    16 1   
    48    15    55 1   
    49    16    58 1   
    50    16    59 1   
    51    17    60 1   
    52    19    61 1   
    53    20    21 1   
    54    20    31 1   
    55    20    62 1   
    56    21    25 1   
    57    21    63 1   
    58    21    64 1   
    59    22    23 ar  
    60    22    27 ar  
    61    22    76 1   
    62    23    24 ar  
    63    23    65 1   
    64    24    25 ar  
    65    24    66 1   
    66    25    26 ar  
    67    26    27 ar  
    68    26    67 1   
    69    27    68 1   
    70    28    69 1   
    71    29    70 1   
    72    29    75 1   
    73    30    71 1   
    74    31    72 1   
    75    31    73 1   
    76    36    75 2   
    77    56    74 1   
    78    57    74 1   
@<TRIPOS>SUBSTRUCTURE
     1 YVG         1 TEMP              0 ****  ****    0 ROOT
