@<TRIPOS>MOLECULE
YVH
   63    67     1     0     0
SMALL
No Charge or Current Charge


@<TRIPOS>ATOM
      1 C15        -20.0580   -13.0560   -27.1200 ca         1 YVH      -0.135300
      2 C13        -22.9340   -11.4730   -26.3070 c          1 YVH       0.689100
      3 C11        -25.0840   -13.1080   -24.3110 cy         1 YVH       0.203300
      4 N10        -28.3950   -13.6290   -24.3490 nv         1 YVH      -1.078200
      5 C01        -20.1240   -13.0310   -24.5350 c3         1 YVH      -0.095100
      6 C02        -20.6910   -12.4580   -25.8540 c3         1 YVH       0.189000
      7 C04        -22.9330   -13.7990   -25.7860 c5         1 YVH       0.084000
      8 C05        -24.3570   -13.1710   -25.7080 cy         1 YVH       0.121000
      9 C06        -25.6220   -13.9880   -26.1670 cy         1 YVH       0.203300
     10 C16        -19.9790   -12.3040   -28.3100 ca         1 YVH      -0.054200
     11 C18        -20.0950   -10.6000   -29.8600 cc         1 YVH      -0.042300
     12 C19        -20.4410    -9.2850   -30.4940 c          1 YVH       0.720200
     13 C22        -19.4910   -11.7290   -30.4410 cd         1 YVH      -0.162400
     14 C23        -18.7570   -11.8080   -31.7250 ca         1 YVH       0.100200
     15 C24        -18.8400   -12.9670   -32.5230 ca         1 YVH      -0.134000
     16 C25        -18.1310   -13.0660   -33.7320 ca         1 YVH      -0.068000
     17 C26        -17.3150   -12.0060   -34.1660 ca         1 YVH      -0.163300
     18 C27        -16.5460   -12.1290   -35.4870 c3         1 YVH      -0.201100
     19 C29        -18.0570   -10.0040   -36.6740 c3         1 YVH      -0.324100
     20 C32        -17.2210   -10.8490   -33.3650 ca         1 YVH       0.165000
     21 C34        -17.9330   -10.7520   -32.1610 ca         1 YVH      -0.109000
     22 C35        -19.4100   -12.7960   -29.4530 ca         1 YVH      -0.082800
     23 C36        -18.8510   -14.0830   -29.4970 ca         1 YVH      -0.062000
     24 C37        -18.9320   -14.8760   -28.3360 ca         1 YVH      -0.165000
     25 C38        -19.5350   -14.3730   -27.1610 ca         1 YVH      -0.109000
     26 F33        -16.4340    -9.8180   -33.7480 f          1 YVH      -0.199000
     27 N03        -22.1640   -12.5490   -25.8980 n          1 YVH      -0.444800
     28 N07        -26.3650   -13.2880   -25.0700 nn         1 YVH      -0.739600
     29 N09        -26.8960   -15.2610   -23.9400 n2         1 YVH      -0.894100
     30 N17        -20.4030   -11.0080   -28.5450 na         1 YVH      -0.191700
     31 O12        -24.2260   -11.8750   -26.3340 os         1 YVH      -0.391100
     32 O20        -20.9380    -8.4310   -29.7720 o          1 YVH      -0.692000
     33 O21        -20.2880    -9.1110   -31.6940 o          1 YVH      -0.692000
     34 O30        -18.6640   -12.5440   -37.0610 o          1 YVH      -0.536000
     35 O31        -16.5440   -11.6270   -38.1030 o          1 YVH      -0.536000
     36 S28        -17.4820   -11.6750   -36.9730 s6         1 YVH       1.063000
     37 H112       -24.7790   -13.9260   -23.6450 h1         1 YVH       0.068700
     38 H111       -24.9680   -12.1520   -23.7880 h1         1 YVH       0.068700
     39 H101       -28.3480   -12.6980   -24.7400 hn         1 YVH       0.457500
     40 H1         -28.7650   -13.6490   -23.4100 hn         1 YVH       0.457500
     41 H013       -20.5210   -12.4730   -23.6800 hc         1 YVH       0.038033
     42 H012       -20.3890   -14.0850   -24.3990 hc         1 YVH       0.038033
     43 H011       -19.0310   -12.9430   -24.5180 hc         1 YVH       0.038033
     44 H021       -20.4150   -11.3950   -25.8350 h1         1 YVH       0.085700
     45 H042       -22.7860   -14.4310   -26.6730 h1         1 YVH       0.064200
     46 H041       -22.6620   -14.3800   -24.8950 h1         1 YVH       0.064200
     47 H061       -25.9540   -13.7630   -27.1880 h1         1 YVH       0.068700
     48 H062       -25.4830   -15.0710   -26.0580 h1         1 YVH       0.068700
     49 H241       -19.4870   -13.7850   -32.2220 ha         1 YVH       0.119000
     50 H251       -18.2230   -13.9680   -34.3340 ha         1 YVH       0.110000
     51 H272       -16.2210   -13.1620   -35.6450 h1         1 YVH       0.097200
     52 H271       -15.6590   -11.4870   -35.4830 h1         1 YVH       0.097200
     53 H292       -18.7120   -10.0290   -35.7980 h1         1 YVH       0.106700
     54 H293       -17.1780    -9.3760   -36.4950 h1         1 YVH       0.106700
     55 H291       -18.6020    -9.6780   -37.5650 h1         1 YVH       0.106700
     56 H341       -17.8180    -9.8610   -31.5520 ha         1 YVH       0.151000
     57 H361       -18.3600   -14.4680   -30.3850 ha         1 YVH       0.109000
     58 H371       -18.5190   -15.8820   -28.3420 ha         1 YVH       0.094000
     59 H381       -19.5810   -15.0180   -26.2880 ha         1 YVH       0.089000
     60 H092       -27.7610   -15.6530   -23.5520 hn         1 YVH       0.375400
     61 H171       -20.9290   -10.4400   -27.8850 hn         1 YVH       0.390000
     62 C08        -27.1960   -14.1470   -24.4270 c2         1 YVH       0.805100
     63 O14        -22.5280   -10.3630   -26.6150 o          1 YVH      -0.514000
@<TRIPOS>BOND
     1     1     6 1   
     2     1    10 ar  
     3     1    25 ar  
     4     2    27 1   
     5     2    31 1   
     6     2    63 2   
     7     3     8 1   
     8     3    28 1   
     9     3    37 1   
    10     3    38 1   
    11     4    39 1   
    12     4    40 1   
    13     4    62 1   
    14     5     6 1   
    15     5    41 1   
    16     5    42 1   
    17     5    43 1   
    18     6    27 1   
    19     6    44 1   
    20     7     8 1   
    21     7    27 1   
    22     7    45 1   
    23     7    46 1   
    24     8     9 1   
    25     8    31 1   
    26     9    28 1   
    27     9    47 1   
    28     9    48 1   
    29    10    22 ar  
    30    10    30 1   
    31    11    12 1   
    32    11    13 2   
    33    11    30 1   
    34    12    32 1   
    35    12    33 1   
    36    13    14 1   
    37    13    22 1   
    38    14    15 ar  
    39    14    21 ar  
    40    15    16 ar  
    41    15    49 1   
    42    16    17 ar  
    43    16    50 1   
    44    17    18 1   
    45    17    20 ar  
    46    18    36 1   
    47    18    51 1   
    48    18    52 1   
    49    19    36 1   
    50    19    53 1   
    51    19    54 1   
    52    19    55 1   
    53    20    21 ar  
    54    20    26 1   
    55    21    56 1   
    56    22    23 ar  
    57    23    24 ar  
    58    23    57 1   
    59    24    25 ar  
    60    24    58 1   
    61    25    59 1   
    62    28    62 1   
    63    29    60 1   
    64    29    62 2   
    65    30    61 1   
    66    34    36 2   
    67    35    36 2   
@<TRIPOS>SUBSTRUCTURE
     1 YVH         1 TEMP              0 ****  ****    0 ROOT
