@<TRIPOS>MOLECULE
YVH
   63    67     1     0     0
SMALL
abcg2


@<TRIPOS>ATOM
      1 C15        -20.0820   -12.8490   -27.0100 ca         1 YVH      -0.135300
      2 C13        -22.9660   -11.2540   -26.2910 c          1 YVH       0.689100
      3 C11        -25.1290   -13.0320   -24.5130 cy         1 YVH       0.203300
      4 N10        -27.5680   -14.2910   -23.4790 nv         1 YVH      -1.078200
      5 C01        -20.2720   -12.7800   -24.4670 c3         1 YVH      -0.095100
      6 C02        -20.7400   -12.2150   -25.8020 c3         1 YVH       0.189000
      7 C04        -22.9350   -13.5190   -25.8990 c5         1 YVH       0.084000
      8 C05        -24.3570   -12.9840   -25.8450 cy         1 YVH       0.121000
      9 C06        -25.5010   -13.7880   -26.4680 cy         1 YVH       0.203300
     10 C16        -19.9440   -12.1300   -28.2060 ca         1 YVH      -0.054200
     11 C18        -19.9480   -10.5450   -29.7930 cc         1 YVH      -0.042300
     12 C19        -20.3390    -9.1900   -30.3400 c          1 YVH       0.720200
     13 C22        -19.3240   -11.6390   -30.3550 cd         1 YVH      -0.162400
     14 C23        -18.7110   -11.7880   -31.6770 ca         1 YVH       0.100200
     15 C24        -18.9860   -12.9150   -32.4560 ca         1 YVH      -0.134000
     16 C25        -18.3630   -13.1070   -33.6770 ca         1 YVH      -0.068000
     17 C26        -17.4420   -12.1880   -34.1720 ca         1 YVH      -0.163300
     18 C27        -16.7580   -12.4040   -35.4780 c3         1 YVH      -0.201100
     19 C29        -17.9190   -10.1170   -36.7100 c3         1 YVH      -0.324100
     20 C32        -17.1890   -11.0740   -33.3830 ca         1 YVH       0.165000
     21 C34        -17.7920   -10.8590   -32.1630 ca         1 YVH      -0.109000
     22 C35        -19.3190   -12.6660   -29.3520 ca         1 YVH      -0.082800
     23 C36        -18.8180   -13.9720   -29.3060 ca         1 YVH      -0.062000
     24 C37        -18.9690   -14.6980   -28.1440 ca         1 YVH      -0.165000
     25 C38        -19.5910   -14.1420   -27.0140 ca         1 YVH      -0.109000
     26 F33        -16.3020   -10.1650   -33.8260 f          1 YVH      -0.199000
     27 N03        -22.1890   -12.2830   -25.9010 n          1 YVH      -0.444800
     28 N07        -26.2600   -13.5960   -25.2450 nn         1 YVH      -0.739600
     29 N09        -27.6830   -15.3450   -25.6010 n2         1 YVH      -0.894100
     30 N17        -20.3050   -10.8540   -28.5110 na         1 YVH      -0.191700
     31 O12        -24.2450   -11.6630   -26.3650 os         1 YVH      -0.391100
     32 O20        -20.8150    -8.4040   -29.4980 o          1 YVH      -0.692000
     33 O21        -20.1670    -9.0020   -31.5550 o          1 YVH      -0.692000
     34 O30        -19.0800   -12.4800   -36.7820 o          1 YVH      -0.536000
     35 O31        -16.9670   -12.1520   -38.0950 o          1 YVH      -0.536000
     36 S28        -17.7520   -11.8790   -36.8920 s6         1 YVH       1.063000
     37 H112       -24.6800   -13.7110   -23.7810 h1         1 YVH       0.068700
     38 H111       -25.3160   -12.0660   -24.0390 h1         1 YVH       0.068700
     39 H101       -26.9490   -13.7810   -22.8690 hn         1 YVH       0.457500
     40 H1         -28.0120   -15.0710   -23.0230 hn         1 YVH       0.457500
     41 H013       -20.7390   -12.2290   -23.6510 hc         1 YVH       0.038033
     42 H012       -20.5160   -13.8350   -24.3410 hc         1 YVH       0.038033
     43 H011       -19.1920   -12.6750   -24.3750 hc         1 YVH       0.038033
     44 H021       -20.4910   -11.1510   -25.7960 h1         1 YVH       0.085700
     45 H042       -22.7550   -14.1040   -26.8080 h1         1 YVH       0.064200
     46 H041       -22.7030   -14.1470   -25.0400 h1         1 YVH       0.064200
     47 H061       -25.9480   -13.3650   -27.3700 h1         1 YVH       0.068700
     48 H062       -25.2310   -14.8310   -26.6630 h1         1 YVH       0.068700
     49 H241       -19.7030   -13.6460   -32.1070 ha         1 YVH       0.119000
     50 H251       -18.5880   -13.9930   -34.2570 ha         1 YVH       0.110000
     51 H272       -16.5860   -13.4660   -35.6660 h1         1 YVH       0.097200
     52 H271       -15.8000   -11.8890   -35.5620 h1         1 YVH       0.097200
     53 H292       -18.4780    -9.8830   -35.8070 h1         1 YVH       0.106700
     54 H293       -16.9340    -9.6550   -36.6850 h1         1 YVH       0.106700
     55 H291       -18.4710    -9.7650   -37.5810 h1         1 YVH       0.106700
     56 H341       -17.5340    -9.9810   -31.5870 ha         1 YVH       0.151000
     57 H361       -18.3170   -14.4070   -30.1620 ha         1 YVH       0.109000
     58 H371       -18.5920   -15.7110   -28.0900 ha         1 YVH       0.094000
     59 H381       -19.6670   -14.7500   -26.1220 ha         1 YVH       0.089000
     60 H092       -28.4060   -15.8990   -25.1540 hn         1 YVH       0.375400
     61 H171       -20.8370   -10.2200   -27.9330 hn         1 YVH       0.390000
     62 C08        -27.1940   -14.4870   -24.7840 c2         1 YVH       0.805100
     63 O14        -22.6410   -10.1180   -26.5520 o          1 YVH      -0.514000
@<TRIPOS>BOND
     1     1     6 1   
     2     1    10 ar  
     3     1    25 ar  
     4     2    27 1   
     5     2    31 1   
     6     2    63 2   
     7     3     8 1   
     8     3    28 1   
     9     3    37 1   
    10     3    38 1   
    11     4    39 1   
    12     4    40 1   
    13     4    62 1   
    14     5     6 1   
    15     5    41 1   
    16     5    42 1   
    17     5    43 1   
    18     6    27 1   
    19     6    44 1   
    20     7     8 1   
    21     7    27 1   
    22     7    45 1   
    23     7    46 1   
    24     8     9 1   
    25     8    31 1   
    26     9    28 1   
    27     9    47 1   
    28     9    48 1   
    29    10    22 ar  
    30    10    30 1   
    31    11    12 1   
    32    11    13 2   
    33    11    30 1   
    34    12    32 1   
    35    12    33 1   
    36    13    14 1   
    37    13    22 1   
    38    14    15 ar  
    39    14    21 ar  
    40    15    16 ar  
    41    15    49 1   
    42    16    17 ar  
    43    16    50 1   
    44    17    18 1   
    45    17    20 ar  
    46    18    36 1   
    47    18    51 1   
    48    18    52 1   
    49    19    36 1   
    50    19    53 1   
    51    19    54 1   
    52    19    55 1   
    53    20    21 ar  
    54    20    26 1   
    55    21    56 1   
    56    22    23 ar  
    57    23    24 ar  
    58    23    57 1   
    59    24    25 ar  
    60    24    58 1   
    61    25    59 1   
    62    28    62 1   
    63    29    60 1   
    64    29    62 2   
    65    30    61 1   
    66    34    36 2   
    67    35    36 2   
@<TRIPOS>SUBSTRUCTURE
     1 YVH         1 TEMP              0 ****  ****    0 ROOT
