@<TRIPOS>MOLECULE
YVJ
   76    78     1     0     0
SMALL
abcg2


@<TRIPOS>ATOM
      1 C10         -7.6970   -10.7630    17.7190 c          1 YVJ       0.563000
      2 C13        -10.4400   -14.9370    18.4400 c3         1 YVJ      -0.085400
      3 C15        -11.7870   -17.0600    18.6850 c          1 YVJ       0.592100
      4 C21        -12.6830   -19.4940    20.4350 c3         1 YVJ      -0.122100
      5 C22         -9.2490    -9.3920    16.6080 c5         1 YVJ       0.099000
      6 C24        -13.3270   -12.5570    26.3750 ca         1 YVJ      -0.105000
      7 C26        -14.3240   -12.6550    24.1860 ca         1 YVJ      -0.108500
      8 C28        -11.9930   -13.1370    24.4580 ca         1 YVJ      -0.108500
      9 C01        -12.7190    -9.5790    21.4920 c          1 YVJ       0.611100
     10 C04        -12.3220   -11.9800    21.4680 c3         1 YVJ       0.035700
     11 C05        -12.9550   -13.2080    22.1400 c3         1 YVJ      -0.041100
     12 C07        -10.4730   -13.4090    18.4600 c3         1 YVJ       0.105700
     13 C08         -9.1010   -12.8360    18.1100 c3         1 YVJ      -0.071400
     14 C09         -9.0770   -11.3180    18.0440 c5         1 YVJ      -0.154700
     15 C18        -12.0610   -12.2670    19.9860 c          1 YVJ       0.587100
     16 C23         -9.9680   -10.6930    16.9710 c5         1 YVJ      -0.091400
     17 C25        -14.4380   -12.4300    25.5530 ca         1 YVJ      -0.107500
     18 C27        -13.1020   -13.0090    23.6220 ca         1 YVJ      -0.085300
     19 C29        -12.1030   -12.9140    25.8230 ca         1 YVJ      -0.107500
     20 C30        -13.7510    -8.4950    21.7780 c3         1 YVJ       0.094500
     21 C32        -14.1020    -8.4900    23.2900 c3         1 YVJ      -0.067100
     22 C33        -10.7180    -7.6170    25.7510 ca         1 YVJ       0.175000
     23 C34        -11.0130    -8.9350    25.4610 ca         1 YVJ      -0.146500
     24 C35        -12.1210    -9.2080    24.6710 ca         1 YVJ      -0.078500
     25 C36        -12.9290    -8.1860    24.1750 ca         1 YVJ      -0.104300
     26 C37        -12.5990    -6.8710    24.4990 ca         1 YVJ      -0.078500
     27 C38        -11.4950    -6.5750    25.2860 ca         1 YVJ      -0.146500
     28 N02        -13.1740   -10.8380    21.6310 ns         1 YVJ      -0.491900
     29 N06        -10.9120   -12.9200    19.7530 ns         1 YVJ      -0.504900
     30 N11         -7.8680    -9.7130    16.8980 ns         1 YVJ      -0.513900
     31 N31        -13.2850    -7.2350    21.2480 n8         1 YVJ      -0.979200
     32 O03        -11.5570    -9.3300    21.2150 o          1 YVJ      -0.585100
     33 O12         -6.6310   -11.1840    18.1360 o          1 YVJ      -0.561000
     34 O16        -12.9850   -17.5510    18.9840 os         1 YVJ      -0.453100
     35 O17        -10.8190   -17.7410    18.4560 o          1 YVJ      -0.488000
     36 O19        -12.8640   -11.9490    19.1240 o          1 YVJ      -0.599100
     37 H1         -10.0440   -15.2550    17.4730 hc         1 YVJ       0.061700
     38 H131        -9.7320   -15.2880    19.1970 hc         1 YVJ       0.061700
     39 H202       -12.6200   -19.4750    18.2730 h1         1 YVJ       0.059200
     40 H201       -14.2090   -19.1420    18.9580 h1         1 YVJ       0.059200
     41 H211       -12.9070   -20.5590    20.5020 hc         1 YVJ       0.048033
     42 H213       -11.6110   -19.3700    20.5780 hc         1 YVJ       0.048033
     43 H212       -13.2040   -18.9930    21.2510 hc         1 YVJ       0.048033
     44 H221        -9.5980    -8.5530    17.2170 h1         1 YVJ       0.047700
     45 H222        -9.3770    -9.1190    15.5600 h1         1 YVJ       0.047700
     46 H241       -13.4150   -12.3830    27.4390 ha         1 YVJ       0.118000
     47 H261       -15.1980   -12.5590    23.5520 ha         1 YVJ       0.110500
     48 H281       -11.0350   -13.4180    24.0350 ha         1 YVJ       0.110500
     49 H041       -11.3670   -11.7750    21.9620 h1         1 YVJ       0.082700
     50 H051       -13.9260   -13.4130    21.6800 hc         1 YVJ       0.061700
     51 H052       -12.3210   -14.0740    21.9390 hc         1 YVJ       0.061700
     52 H071       -11.2040   -13.0650    17.7260 h1         1 YVJ       0.082700
     53 H082        -8.7990   -13.2480    17.1430 hc         1 YVJ       0.060200
     54 H081        -8.3670   -13.1850    18.8430 hc         1 YVJ       0.060200
     55 H091        -9.3470   -10.9080    19.0270 hc         1 YVJ       0.089700
     56 H232       -10.9890   -10.5200    17.3040 hc         1 YVJ       0.062700
     57 H231       -10.0080   -11.3480    16.0970 hc         1 YVJ       0.062700
     58 H251       -15.3970   -12.1560    25.9740 ha         1 YVJ       0.116500
     59 H291       -11.2320   -13.0220    26.4570 ha         1 YVJ       0.116500
     60 H301       -14.6720    -8.7610    21.2490 h1         1 YVJ       0.070700
     61 H321       -14.8850    -7.7430    23.4370 hc         1 YVJ       0.053200
     62 H322       -14.5380    -9.4530    23.5670 hc         1 YVJ       0.053200
     63 H341       -10.3940    -9.7360    25.8430 ha         1 YVJ       0.132000
     64 H351       -12.3610   -10.2410    24.4460 ha         1 YVJ       0.117000
     65 H371       -13.2210    -6.0590    24.1420 ha         1 YVJ       0.117000
     66 H381       -11.2490    -5.5510    25.5360 ha         1 YVJ       0.132000
     67 H021       -14.1660   -10.9920    21.7270 hn         1 YVJ       0.320500
     68 H061       -10.3120   -13.1280    20.5380 hn         1 YVJ       0.312500
     69 H111        -7.1030    -9.1130    16.6310 hn         1 YVJ       0.325500
     70 H312       -13.9730    -6.5170    21.4380 hn         1 YVJ       0.408500
     71 H2         -12.4340    -6.9490    21.7150 hn         1 YVJ       0.408500
     72 C14        -11.8080   -15.5550    18.6710 c3         1 YVJ      -0.138400
     73 F39         -9.6450    -7.3400    26.5130 f          1 YVJ      -0.179000
     74 H141       -12.5130   -15.2270    17.9010 hc         1 YVJ       0.074700
     75 C20        -13.1420   -18.9730    19.0900 c3         1 YVJ       0.166600
     76 H142       -12.2350   -15.2200    19.6210 hc         1 YVJ       0.074700
@<TRIPOS>BOND
     1     1    14 1   
     2     1    30 1   
     3     1    33 2   
     4     2    12 1   
     5     2    37 1   
     6     2    38 1   
     7     2    72 1   
     8     3    34 1   
     9     3    35 2   
    10     3    72 1   
    11     4    41 1   
    12     4    42 1   
    13     4    43 1   
    14     4    75 1   
    15     5    16 1   
    16     5    30 1   
    17     5    44 1   
    18     5    45 1   
    19     6    17 ar  
    20     6    19 ar  
    21     6    46 1   
    22     7    17 ar  
    23     7    18 ar  
    24     7    47 1   
    25     8    18 ar  
    26     8    19 ar  
    27     8    48 1   
    28     9    20 1   
    29     9    28 1   
    30     9    32 2   
    31    10    11 1   
    32    10    15 1   
    33    10    28 1   
    34    10    49 1   
    35    11    18 1   
    36    11    50 1   
    37    11    51 1   
    38    12    13 1   
    39    12    29 1   
    40    12    52 1   
    41    13    14 1   
    42    13    53 1   
    43    13    54 1   
    44    14    16 1   
    45    14    55 1   
    46    15    29 1   
    47    15    36 2   
    48    16    56 1   
    49    16    57 1   
    50    17    58 1   
    51    19    59 1   
    52    20    21 1   
    53    20    31 1   
    54    20    60 1   
    55    21    25 1   
    56    21    61 1   
    57    21    62 1   
    58    22    23 ar  
    59    22    27 ar  
    60    22    73 1   
    61    23    24 ar  
    62    23    63 1   
    63    24    25 ar  
    64    24    64 1   
    65    25    26 ar  
    66    26    27 ar  
    67    26    65 1   
    68    27    66 1   
    69    28    67 1   
    70    29    68 1   
    71    30    69 1   
    72    31    70 1   
    73    31    71 1   
    74    34    75 1   
    75    39    75 1   
    76    40    75 1   
    77    72    74 1   
    78    72    76 1   
@<TRIPOS>SUBSTRUCTURE
     1 YVJ         1 TEMP              0 ****  ****    0 ROOT
