@<TRIPOS>MOLECULE
YVJ
   76    78     1     0     0
SMALL
No Charge or Current Charge


@<TRIPOS>ATOM
      1 C10         -7.2190   -11.9780    17.1770 c          1 YVJ       0.563000
      2 C13        -11.0760   -15.2780    18.0940 c3         1 YVJ      -0.085400
      3 C15        -12.9460   -16.9850    18.3240 c          1 YVJ       0.592100
      4 C21        -11.9130   -19.7950    19.1000 c3         1 YVJ      -0.122100
      5 C22         -8.4270   -10.0370    16.5060 c5         1 YVJ       0.099000
      6 C24        -12.6730   -11.9720    26.3550 ca         1 YVJ      -0.105000
      7 C26        -13.7540   -12.3570    24.2070 ca         1 YVJ      -0.108500
      8 C28        -11.3360   -12.5390    24.3990 ca         1 YVJ      -0.108500
      9 C01        -12.3870    -9.5140    22.1330 c          1 YVJ       0.611100
     10 C04        -11.8950   -11.8380    21.2290 c3         1 YVJ       0.035700
     11 C05        -12.4100   -12.9870    22.1360 c3         1 YVJ      -0.041100
     12 C07        -10.6410   -13.7930    18.1160 c3         1 YVJ       0.105700
     13 C08         -9.1650   -13.6080    17.6850 c3         1 YVJ      -0.071400
     14 C09         -8.6680   -12.1340    17.6570 c5         1 YVJ      -0.154700
     15 C18        -11.8520   -12.2820    19.7400 c          1 YVJ       0.587100
     16 C23         -9.4480   -11.1910    16.6980 c5         1 YVJ      -0.091400
     17 C25        -13.8390   -12.0360    25.5730 ca         1 YVJ      -0.107500
     18 C27        -12.5020   -12.6120    23.6120 ca         1 YVJ      -0.085300
     19 C29        -11.4210   -12.2200    25.7660 ca         1 YVJ      -0.107500
     20 C30        -13.4820    -8.3820    22.1800 c3         1 YVJ       0.094500
     21 C32        -14.3150    -8.4490    23.4900 c3         1 YVJ      -0.067100
     22 C33        -12.4590    -6.6440    26.9800 ca         1 YVJ       0.175000
     23 C34        -12.0720    -7.9270    26.5670 ca         1 YVJ      -0.146500
     24 C35        -12.6700    -8.5080    25.4360 ca         1 YVJ      -0.078500
     25 C36        -13.6540    -7.8070    24.7100 ca         1 YVJ      -0.104300
     26 C37        -14.0410    -6.5200    25.1360 ca         1 YVJ      -0.078500
     27 C38        -13.4420    -5.9380    26.2680 ca         1 YVJ      -0.146500
     28 N02        -12.7310   -10.6250    21.3870 ns         1 YVJ      -0.491900
     29 N06        -10.8700   -13.2050    19.4400 ns         1 YVJ      -0.504900
     30 N11         -7.1730   -10.7870    16.5050 ns         1 YVJ      -0.513900
     31 N31        -12.9880    -6.9830    21.9370 n8         1 YVJ      -0.979200
     32 O03        -11.2860    -9.4060    22.6610 o          1 YVJ      -0.585100
     33 O12         -6.3130   -12.7950    17.1530 o          1 YVJ      -0.561000
     34 O16        -12.8930   -17.6180    19.5410 os         1 YVJ      -0.453100
     35 O17        -13.2690   -17.5190    17.2720 o          1 YVJ      -0.488000
     36 O19        -12.6250   -11.8560    18.8920 o          1 YVJ      -0.599100
     37 H1         -10.8800   -15.6870    17.0950 hc         1 YVJ       0.061700
     38 H131       -10.4540   -15.8500    18.7950 hc         1 YVJ       0.061700
     39 H202       -14.0420   -19.3100    19.0260 h1         1 YVJ       0.059200
     40 H201       -13.3370   -19.3270    20.6520 h1         1 YVJ       0.059200
     41 H211       -12.0570   -20.8740    19.2250 hc         1 YVJ       0.048033
     42 H213       -11.7310   -19.5990    18.0370 hc         1 YVJ       0.048033
     43 H212       -11.0210   -19.5020    19.6670 hc         1 YVJ       0.048033
     44 H221        -8.4640    -9.3230    17.3400 h1         1 YVJ       0.047700
     45 H222        -8.5970    -9.4870    15.5700 h1         1 YVJ       0.047700
     46 H241       -12.7380   -11.7240    27.4120 ha         1 YVJ       0.118000
     47 H261       -14.6630   -12.4090    23.6120 ha         1 YVJ       0.110500
     48 H281       -10.3640   -12.7340    23.9530 ha         1 YVJ       0.110500
     49 H041       -10.8620   -11.6030    21.5160 h1         1 YVJ       0.082700
     50 H051       -13.3910   -13.3110    21.7690 hc         1 YVJ       0.061700
     51 H052       -11.7500   -13.8570    22.0250 hc         1 YVJ       0.061700
     52 H071       -11.2620   -13.2620    17.3820 h1         1 YVJ       0.082700
     53 H082        -9.0360   -14.0510    16.6900 hc         1 YVJ       0.060200
     54 H081        -8.5280   -14.1910    18.3610 hc         1 YVJ       0.060200
     55 H091        -8.7120   -11.7080    18.6660 hc         1 YVJ       0.089700
     56 H232       -10.4020   -10.8450    17.1110 hc         1 YVJ       0.062700
     57 H231        -9.6600   -11.6820    15.7410 hc         1 YVJ       0.062700
     58 H251       -14.8080   -11.8400    26.0260 ha         1 YVJ       0.116500
     59 H291       -10.5170   -12.1660    26.3690 ha         1 YVJ       0.116500
     60 H301       -14.1750    -8.6140    21.3590 h1         1 YVJ       0.070700
     61 H321       -15.2830    -7.9680    23.3040 hc         1 YVJ       0.053200
     62 H322       -14.5550    -9.4980    23.7040 hc         1 YVJ       0.053200
     63 H341       -11.3130    -8.4700    27.1240 ha         1 YVJ       0.132000
     64 H351       -12.3670    -9.5030    25.1230 ha         1 YVJ       0.117000
     65 H371       -14.8060    -5.9690    24.5930 ha         1 YVJ       0.117000
     66 H381       -13.7390    -4.9450    26.5960 ha         1 YVJ       0.132000
     67 H021       -13.6320   -10.6050    20.9250 hn         1 YVJ       0.320500
     68 H061       -10.2700   -13.4990    20.2020 hn         1 YVJ       0.312500
     69 H111        -6.3180   -10.5230    16.0290 hn         1 YVJ       0.325500
     70 H312       -13.7570    -6.3220    22.0950 hn         1 YVJ       0.408500
     71 H2         -12.3190    -6.7480    22.6810 hn         1 YVJ       0.408500
     72 C14        -12.5720   -15.5060    18.4400 c3         1 YVJ      -0.138400
     73 F39        -11.8850    -6.0850    28.0680 f          1 YVJ      -0.179000
     74 H141       -13.1930   -14.9230    17.7510 hc         1 YVJ       0.074700
     75 C20        -13.1540   -19.0340    19.6100 c3         1 YVJ       0.166600
     76 H142       -12.7330   -15.1820    19.4750 hc         1 YVJ       0.074700
@<TRIPOS>BOND
     1     1    14 1   
     2     1    30 1   
     3     1    33 2   
     4     2    12 1   
     5     2    37 1   
     6     2    38 1   
     7     2    72 1   
     8     3    34 1   
     9     3    35 2   
    10     3    72 1   
    11     4    41 1   
    12     4    42 1   
    13     4    43 1   
    14     4    75 1   
    15     5    16 1   
    16     5    30 1   
    17     5    44 1   
    18     5    45 1   
    19     6    17 ar  
    20     6    19 ar  
    21     6    46 1   
    22     7    17 ar  
    23     7    18 ar  
    24     7    47 1   
    25     8    18 ar  
    26     8    19 ar  
    27     8    48 1   
    28     9    20 1   
    29     9    28 1   
    30     9    32 2   
    31    10    11 1   
    32    10    15 1   
    33    10    28 1   
    34    10    49 1   
    35    11    18 1   
    36    11    50 1   
    37    11    51 1   
    38    12    13 1   
    39    12    29 1   
    40    12    52 1   
    41    13    14 1   
    42    13    53 1   
    43    13    54 1   
    44    14    16 1   
    45    14    55 1   
    46    15    29 1   
    47    15    36 2   
    48    16    56 1   
    49    16    57 1   
    50    17    58 1   
    51    19    59 1   
    52    20    21 1   
    53    20    31 1   
    54    20    60 1   
    55    21    25 1   
    56    21    61 1   
    57    21    62 1   
    58    22    23 ar  
    59    22    27 ar  
    60    22    73 1   
    61    23    24 ar  
    62    23    63 1   
    63    24    25 ar  
    64    24    64 1   
    65    25    26 ar  
    66    26    27 ar  
    67    26    65 1   
    68    27    66 1   
    69    28    67 1   
    70    29    68 1   
    71    30    69 1   
    72    31    70 1   
    73    31    71 1   
    74    34    75 1   
    75    39    75 1   
    76    40    75 1   
    77    72    74 1   
    78    72    76 1   
@<TRIPOS>SUBSTRUCTURE
     1 YVJ         1 TEMP              0 ****  ****    0 ROOT
