@<TRIPOS>MOLECULE
YVK
   71    76     1     0     0
SMALL
No Charge or Current Charge


@<TRIPOS>ATOM
      1 C10         -3.9460    -9.9230   -11.3810 c6         1 YVK      -0.089900
      2 C15         -3.2470    -8.7080   -14.1090 c6         1 YVK      -0.090400
      3 C17         -7.3410    -8.4290   -11.4070 cc         1 YVK       0.398800
      4 C20        -10.1550    -9.2400   -13.9680 c6         1 YVK      -0.074400
      5 C21        -10.7440   -10.4210   -13.1790 c6         1 YVK      -0.158400
      6 C22         -9.7060   -11.2270   -12.3810 c          1 YVK       0.578000
      7 C24         -7.4590   -11.3790   -11.3250 ca         1 YVK      -0.055000
      8 C26         -5.9810   -13.3230   -11.2380 ca         1 YVK      -0.110500
      9 C28         -6.2940   -11.9530    -9.2550 ca         1 YVK      -0.110500
     10 C02         -6.7430    -3.9900    -6.5420 cc         1 YVK       0.199300
     11 C03         -5.7270    -4.8300    -6.9220 cd         1 YVK      -0.175000
     12 C04         -5.7010    -5.7520    -8.0860 ca         1 YVK      -0.025000
     13 C05         -6.9030    -6.2450    -8.6550 ca         1 YVK      -0.042000
     14 C06         -6.8400    -7.1140    -9.7530 ca         1 YVK       0.063400
     15 C07         -5.6440    -7.4930   -10.2850 ca         1 YVK      -0.074200
     16 C09         -4.9210    -9.0070   -12.1860 c6         1 YVK       0.088300
     17 C11         -2.5360   -10.0320   -12.0270 c6         1 YVK      -0.090400
     18 C12         -2.6210   -10.0330   -13.5780 c6         1 YVK       0.167300
     19 C16         -4.1720    -7.9900   -13.0840 c6         1 YVK      -0.089900
     20 C18         -8.1000    -9.2350   -12.4620 c6         1 YVK       0.128400
     21 C19         -9.2890    -8.4030   -13.0170 c6         1 YVK      -0.087400
     22 C25         -6.8830   -12.5070   -11.9430 ca         1 YVK      -0.098000
     23 C27         -5.6780   -13.0400    -9.8960 ca         1 YVK      -0.110000
     24 C29         -7.1980   -11.1390    -9.9600 ca         1 YVK      -0.098000
     25 C32         -4.4260    -7.0260    -9.7700 ca         1 YVK      -0.113000
     26 C33         -4.4670    -6.1530    -8.6640 ca         1 YVK      -0.084000
     27 C34         -4.7870    -4.7360    -5.8570 cd         1 YVK       0.290300
     28 C35         -3.5220    -5.5310    -5.6560 c3         1 YVK      -0.133400
     29 N08         -5.9380    -8.3380   -11.3250 na         1 YVK      -0.164600
     30 N23         -8.4680   -10.6240   -12.0200 n          1 YVK      -0.246400
     31 N31         -7.9100    -7.6850   -10.4300 nd         1 YVK      -0.565100
     32 N36         -5.1400    -3.8700    -4.9260 nc         1 YVK      -0.367300
     33 O13         -1.3290   -10.2270   -14.1950 os         1 YVK      -0.453000
     34 O37         -6.4050    -3.3660    -5.3670 os         1 YVK      -0.073700
     35 H1          -3.8400    -9.5980   -10.3390 hc         1 YVK       0.058700
     36 H2          -4.3880   -10.9250   -11.3240 hc         1 YVK       0.058700
     37 H3          -2.4550    -8.0130   -14.4180 hc         1 YVK       0.055450
     38 H4          -3.8200    -8.9360   -15.0190 hc         1 YVK       0.055450
     39 H5         -10.9610    -8.6250   -14.3920 hc         1 YVK       0.050200
     40 H6          -9.5520    -9.6060   -14.8110 hc         1 YVK       0.050200
     41 H7         -11.4380   -10.0120   -12.4330 hc         1 YVK       0.076200
     42 H8         -11.3380   -11.1000   -13.8050 hc         1 YVK       0.076200
     43 H9          -5.5240   -14.1790   -11.7300 ha         1 YVK       0.115000
     44 H10         -6.0830   -11.7480    -8.2080 ha         1 YVK       0.115000
     45 H11         -8.3370    -2.5820    -6.8760 hc         1 YVK       0.064700
     46 H12         -7.9330    -3.5640    -8.2890 hc         1 YVK       0.064700
     47 H13         -8.8420    -4.2780    -6.9340 hc         1 YVK       0.064700
     48 H14         -7.8730    -5.9960    -8.2420 ha         1 YVK       0.130000
     49 H15         -5.4530    -9.6780   -12.8730 h1         1 YVK       0.063700
     50 H16         -2.0500   -10.9430   -11.6550 hc         1 YVK       0.055450
     51 H17         -1.9110    -9.1900   -11.6980 hc         1 YVK       0.055450
     52 H18         -3.2730   -10.8660   -13.8820 h1         1 YVK       0.029700
     53 H19          0.2250   -11.5570   -14.6210 h1         1 YVK       0.029367
     54 H20         -0.3840   -11.6440   -12.9600 h1         1 YVK       0.029367
     55 H21         -1.3450   -12.3230   -14.2990 h1         1 YVK       0.029367
     56 H22         -3.5690    -7.3100   -12.4680 hc         1 YVK       0.058700
     57 H23         -4.8910    -7.3560   -13.6200 hc         1 YVK       0.058700
     58 H24         -7.4380    -9.3750   -13.3250 h1         1 YVK       0.046700
     59 H25         -8.9080    -7.5140   -13.5380 hc         1 YVK       0.068700
     60 H26         -9.9160    -8.0330   -12.1930 hc         1 YVK       0.068700
     61 H27         -7.1260   -12.7450   -12.9760 ha         1 YVK       0.125000
     62 H28         -4.9830   -13.6730    -9.3480 ha         1 YVK       0.113000
     63 H29         -7.6970   -10.3260    -9.4400 ha         1 YVK       0.125000
     64 H30         -3.4700    -7.3130   -10.1990 ha         1 YVK       0.121000
     65 H31         -3.5280    -5.7620    -8.2870 ha         1 YVK       0.116000
     66 H32         -3.2360    -5.5650    -4.5980 hc         1 YVK       0.056367
     67 H33         -3.6480    -6.5670    -5.9900 hc         1 YVK       0.056367
     68 H34         -2.6870    -5.0860    -6.2080 hc         1 YVK       0.056367
     69 C14         -0.6810   -11.4990   -14.0060 c3         1 YVK       0.146900
     70 O30         -9.9590   -12.3900   -12.0890 o          1 YVK      -0.542000
     71 C01         -8.0350    -3.5850    -7.1980 c3         1 YVK      -0.139400
@<TRIPOS>BOND
     1     1    16 1   
     2     1    17 1   
     3     1    35 1   
     4     1    36 1   
     5     2    18 1   
     6     2    19 1   
     7     2    37 1   
     8     2    38 1   
     9     3    20 1   
    10     3    29 1   
    11     3    31 2   
    12     4     5 1   
    13     4    21 1   
    14     4    39 1   
    15     4    40 1   
    16     5     6 1   
    17     5    41 1   
    18     5    42 1   
    19     6    30 1   
    20     6    70 2   
    21     7    22 ar  
    22     7    24 ar  
    23     7    30 1   
    24     8    22 ar  
    25     8    23 ar  
    26     8    43 1   
    27     9    23 ar  
    28     9    24 ar  
    29     9    44 1   
    30    10    11 2   
    31    10    34 1   
    32    10    71 1   
    33    11    12 1   
    34    11    27 1   
    35    12    13 ar  
    36    12    26 ar  
    37    13    14 ar  
    38    13    48 1   
    39    14    15 ar  
    40    14    31 1   
    41    15    25 ar  
    42    15    29 1   
    43    16    19 1   
    44    16    29 1   
    45    16    49 1   
    46    17    18 1   
    47    17    50 1   
    48    17    51 1   
    49    18    33 1   
    50    18    52 1   
    51    19    56 1   
    52    19    57 1   
    53    20    21 1   
    54    20    30 1   
    55    20    58 1   
    56    21    59 1   
    57    21    60 1   
    58    22    61 1   
    59    23    62 1   
    60    24    63 1   
    61    25    26 ar  
    62    25    64 1   
    63    26    65 1   
    64    27    28 1   
    65    27    32 2   
    66    28    66 1   
    67    28    67 1   
    68    28    68 1   
    69    32    34 1   
    70    33    69 1   
    71    45    71 1   
    72    46    71 1   
    73    47    71 1   
    74    53    69 1   
    75    54    69 1   
    76    55    69 1   
@<TRIPOS>SUBSTRUCTURE
     1 YVK         1 TEMP              0 ****  ****    0 ROOT
