@<TRIPOS>MOLECULE
YVK
   71    76     1     0     0
SMALL
abcg2


@<TRIPOS>ATOM
      1 C10         -3.8160    -9.7780   -11.4210 c6         1 YVK      -0.089900
      2 C15         -3.2580    -8.6500   -14.1670 c6         1 YVK      -0.090400
      3 C17         -7.1780    -8.5150   -11.4090 cc         1 YVK       0.398800
      4 C20         -9.9570    -9.3670   -13.8660 c6         1 YVK      -0.074400
      5 C21        -10.6190   -10.3450   -12.9120 c6         1 YVK      -0.158400
      6 C22         -9.6440   -11.1110   -12.0520 c          1 YVK       0.578000
      7 C24         -7.4490   -11.3640   -11.1620 ca         1 YVK      -0.055000
      8 C26         -5.7190   -13.0330   -11.2340 ca         1 YVK      -0.110500
      9 C28         -6.3090   -12.0010    -9.1450 ca         1 YVK      -0.110500
     10 C02         -6.7750    -3.9490    -6.6910 cc         1 YVK       0.199300
     11 C03         -5.9090    -4.9740    -6.9140 cd         1 YVK      -0.175000
     12 C04         -5.8180    -5.8470    -8.0860 ca         1 YVK      -0.025000
     13 C05         -6.9630    -6.4200    -8.6220 ca         1 YVK      -0.042000
     14 C06         -6.8390    -7.2350    -9.7450 ca         1 YVK       0.063400
     15 C07         -5.5810    -7.4870   -10.3110 ca         1 YVK      -0.074200
     16 C09         -4.8140    -8.9320   -12.2300 c6         1 YVK       0.088300
     17 C11         -2.4770    -9.9160   -12.1510 c6         1 YVK      -0.090400
     18 C12         -2.7090    -9.9890   -13.6570 c6         1 YVK       0.167300
     19 C16         -4.0940    -7.9150   -13.1100 c6         1 YVK      -0.089900
     20 C18         -7.9060    -9.3280   -12.4460 c6         1 YVK       0.128400
     21 C19         -9.0140    -8.4880   -13.0710 c6         1 YVK      -0.087400
     22 C25         -6.6720   -12.2620   -11.8850 ca         1 YVK      -0.098000
     23 C27         -5.5360   -12.9040    -9.8640 ca         1 YVK      -0.110000
     24 C29         -7.2660   -11.2330    -9.7920 ca         1 YVK      -0.098000
     25 C32         -4.4230    -6.9140    -9.7870 ca         1 YVK      -0.113000
     26 C33         -4.5660    -6.1000    -8.6810 ca         1 YVK      -0.084000
     27 C34         -5.1330    -5.0180    -5.7170 cd         1 YVK       0.290300
     28 C35         -4.0250    -5.9490    -5.3730 c3         1 YVK      -0.133400
     29 N08         -5.8240    -8.3270   -11.3730 na         1 YVK      -0.164600
     30 N23         -8.4150   -10.5630   -11.8400 n          1 YVK      -0.246400
     31 N31         -7.8090    -7.8870   -10.4560 nd         1 YVK      -0.565100
     32 N36         -5.5220    -4.1050    -4.8760 nc         1 YVK      -0.367300
     33 O13         -1.5450   -10.2800   -14.3970 os         1 YVK      -0.453000
     34 O37         -6.5450    -3.4340    -5.4810 os         1 YVK      -0.073700
     35 H1          -3.6430    -9.3450   -10.4360 hc         1 YVK       0.058700
     36 H2          -4.2570   -10.7610   -11.2480 hc         1 YVK       0.058700
     37 H3          -2.4170    -8.0180   -14.4590 hc         1 YVK       0.055450
     38 H4          -3.8550    -8.8200   -15.0650 hc         1 YVK       0.055450
     39 H5         -10.7130    -8.7610   -14.3670 hc         1 YVK       0.050200
     40 H6          -9.4120    -9.9040   -14.6460 hc         1 YVK       0.050200
     41 H7         -11.2930    -9.8060   -12.2380 hc         1 YVK       0.076200
     42 H8         -11.2310   -11.0780   -13.4380 hc         1 YVK       0.076200
     43 H9          -5.1180   -13.7330   -11.8000 ha         1 YVK       0.115000
     44 H10         -6.1690   -11.8960    -8.0770 ha         1 YVK       0.115000
     45 H11         -7.8000    -2.2500    -7.4700 hc         1 YVK       0.064700
     46 H12         -7.7500    -3.6530    -8.5450 hc         1 YVK       0.064700
     47 H13         -8.8360    -3.6410    -7.1580 hc         1 YVK       0.064700
     48 H14         -7.9340    -6.2540    -8.1730 ha         1 YVK       0.130000
     49 H15         -5.3490    -9.6070   -12.8970 h1         1 YVK       0.063700
     50 H16         -1.9620   -10.8060   -11.7830 hc         1 YVK       0.055450
     51 H17         -1.8280    -9.0630   -11.9290 hc         1 YVK       0.055450
     52 H18         -3.4570   -10.7780   -13.8440 h1         1 YVK       0.029700
     53 H19         -0.2940   -11.7470   -15.0090 h1         1 YVK       0.029367
     54 H20         -0.8290   -11.9340   -13.3360 h1         1 YVK       0.029367
     55 H21         -1.9400   -12.3040   -14.6630 h1         1 YVK       0.029367
     56 H22         -3.4520    -7.2770   -12.5000 hc         1 YVK       0.058700
     57 H23         -4.8190    -7.2580   -13.5950 hc         1 YVK       0.058700
     58 H24         -7.2200    -9.6070   -13.2510 h1         1 YVK       0.046700
     59 H25         -8.5420    -7.7310   -13.6990 hc         1 YVK       0.068700
     60 H26         -9.5690    -7.9620   -12.2920 hc         1 YVK       0.068700
     61 H27         -6.8180   -12.3590   -12.9540 ha         1 YVK       0.125000
     62 H28         -4.7890   -13.5020    -9.3580 ha         1 YVK       0.113000
     63 H29         -7.8740   -10.5310    -9.2360 ha         1 YVK       0.125000
     64 H30         -3.4440    -7.0740   -10.2170 ha         1 YVK       0.121000
     65 H31         -3.6830    -5.6280    -8.2700 ha         1 YVK       0.116000
     66 H32         -3.7810    -5.8860    -4.3150 hc         1 YVK       0.056367
     67 H33         -4.2990    -6.9770    -5.6080 hc         1 YVK       0.056367
     68 H34         -3.1240    -5.7140    -5.9410 hc         1 YVK       0.056367
     69 C14         -1.1430   -11.6240   -14.3380 c3         1 YVK       0.146900
     70 O30         -9.9470   -12.1810   -11.5510 o          1 YVK      -0.542000
     71 C01         -7.8480    -3.3390    -7.5080 c3         1 YVK      -0.139400
@<TRIPOS>BOND
     1     1    16 1   
     2     1    17 1   
     3     1    35 1   
     4     1    36 1   
     5     2    18 1   
     6     2    19 1   
     7     2    37 1   
     8     2    38 1   
     9     3    20 1   
    10     3    29 1   
    11     3    31 2   
    12     4     5 1   
    13     4    21 1   
    14     4    39 1   
    15     4    40 1   
    16     5     6 1   
    17     5    41 1   
    18     5    42 1   
    19     6    30 1   
    20     6    70 2   
    21     7    22 ar  
    22     7    24 ar  
    23     7    30 1   
    24     8    22 ar  
    25     8    23 ar  
    26     8    43 1   
    27     9    23 ar  
    28     9    24 ar  
    29     9    44 1   
    30    10    11 2   
    31    10    34 1   
    32    10    71 1   
    33    11    12 1   
    34    11    27 1   
    35    12    13 ar  
    36    12    26 ar  
    37    13    14 ar  
    38    13    48 1   
    39    14    15 ar  
    40    14    31 1   
    41    15    25 ar  
    42    15    29 1   
    43    16    19 1   
    44    16    29 1   
    45    16    49 1   
    46    17    18 1   
    47    17    50 1   
    48    17    51 1   
    49    18    33 1   
    50    18    52 1   
    51    19    56 1   
    52    19    57 1   
    53    20    21 1   
    54    20    30 1   
    55    20    58 1   
    56    21    59 1   
    57    21    60 1   
    58    22    61 1   
    59    23    62 1   
    60    24    63 1   
    61    25    26 ar  
    62    25    64 1   
    63    26    65 1   
    64    27    28 1   
    65    27    32 2   
    66    28    66 1   
    67    28    67 1   
    68    28    68 1   
    69    32    34 1   
    70    33    69 1   
    71    45    71 1   
    72    46    71 1   
    73    47    71 1   
    74    53    69 1   
    75    54    69 1   
    76    55    69 1   
@<TRIPOS>SUBSTRUCTURE
     1 YVK         1 TEMP              0 ****  ****    0 ROOT
