@<TRIPOS>MOLECULE
YVM
   90    92     1     0     0
SMALL
abcg2


@<TRIPOS>ATOM
      1 C10         22.1860    -9.8330    31.0060 c          1 YVM       0.562000
      2 C13         23.1690   -14.6750    29.9440 c3         1 YVM      -0.083400
      3 C15         23.6470   -17.1180    29.4950 c          1 YVM       0.592100
      4 C20         24.1750   -19.3590    28.9270 c3         1 YVM       0.167600
      5 C21         25.3320   -20.1040    28.3050 c3         1 YVM      -0.097100
      6 C22         24.2330    -9.1380    31.9240 c5         1 YVM       0.098000
      7 C24         27.5130   -12.7210    22.2090 ca         1 YVM      -0.104000
      8 C26         28.2310   -12.4900    24.4940 ca         1 YVM      -0.109000
      9 C28         26.1540   -13.5780    24.0000 ca         1 YVM      -0.109000
     10 C01         25.6850    -9.8320    26.7990 c          1 YVM       0.596100
     11 C04         25.8540   -12.2620    26.9540 c3         1 YVM       0.037700
     12 C05         26.8180   -13.3210    26.4090 c3         1 YVM      -0.040100
     13 C07         23.7520   -13.2640    29.9770 c3         1 YVM       0.104700
     14 C08         22.7110   -12.2510    30.4520 c3         1 YVM      -0.071400
     15 C09         23.2370   -10.8280    30.5330 c5         1 YVM      -0.155700
     16 C23         24.3920   -10.6000    31.5080 c5         1 YVM      -0.094400
     17 C25         28.4460   -12.2810    23.1370 ca         1 YVM      -0.107500
     18 C27         27.0830   -13.1380    24.9420 ca         1 YVM      -0.088300
     19 C29         26.3660   -13.3740    22.6440 ca         1 YVM      -0.107500
     20 C30         26.4650    -8.5460    26.5560 c3         1 YVM       0.040700
     21 C32         27.0280    -8.5200    25.1150 c3         1 YVM      -0.049100
     22 C33         23.9360    -8.8470    22.1820 ca         1 YVM       0.173000
     23 C34         24.3060    -7.5920    22.6250 ca         1 YVM      -0.150000
     24 C35         25.3200    -7.4920    23.5690 ca         1 YVM      -0.078000
     25 C36         25.9580    -8.6260    24.0670 ca         1 YVM      -0.102300
     26 C37         25.5570    -9.8720    23.5900 ca         1 YVM      -0.078000
     27 C38         24.5470    -9.9950    22.6470 ca         1 YVM      -0.150000
     28 C41         25.0190    -5.0980    27.1110 c3         1 YVM      -0.161400
     29 C43         23.8850    -5.3280    28.0880 c3         1 YVM       0.163600
     30 C45         23.4090    -5.5390    30.3580 c3         1 YVM       0.241700
     31 C46         24.0060    -5.5510    31.6880 c1         1 YVM      -0.150100
     32 C47         24.4720    -5.5650    32.7950 c1         1 YVM      -0.219000
     33 F39         22.9610    -8.9560    21.2630 f          1 YVM      -0.180000
     34 N02         26.4340   -10.9450    26.8370 ns         1 YVM      -0.488900
     35 N06         24.2700   -12.8960    28.6730 ns         1 YVM      -0.494900
     36 N11         22.8050    -8.9390    31.7970 ns         1 YVM      -0.515900
     37 N31         25.6030    -7.4260    26.8150 ns         1 YVM      -0.497900
     38 O03         24.4680    -9.8430    26.8980 o          1 YVM      -0.608100
     39 O12         21.0020    -9.8370    30.7120 o          1 YVM      -0.561000
     40 O16         24.5410   -17.9740    29.0140 os         1 YVM      -0.455100
     41 O17         22.5460   -17.4430    29.8630 o          1 YVM      -0.488000
     42 O19         26.4310   -12.5240    29.2590 o          1 YVM      -0.610100
     43 O42         27.2590    -5.9550    27.2280 o          1 YVM      -0.600100
     44 O44         24.4190    -5.4200    29.3890 os         1 YVM      -0.440000
     45 H131        22.3080   -14.6940    29.2680 hc         1 YVM       0.062700
     46 H1          22.7870   -14.9090    30.9400 hc         1 YVM       0.062700
     47 H201        23.9540   -19.7450    29.9240 h1         1 YVM       0.048200
     48 H202        23.2740   -19.4650    28.3200 h1         1 YVM       0.048200
     49 H211        25.0770   -21.1600    28.2290 hc         1 YVM       0.046700
     50 H212        25.5510   -19.7390    27.3020 hc         1 YVM       0.046700
     51 H213        26.2360   -20.0220    28.9100 hc         1 YVM       0.046700
     52 H221        24.7870    -8.4660    31.2620 h1         1 YVM       0.049200
     53 H222        24.5670    -8.9490    32.9440 h1         1 YVM       0.049200
     54 H241        27.6780   -12.5580    21.1520 ha         1 YVM       0.118000
     55 H261        28.9670   -12.1480    25.2130 ha         1 YVM       0.111000
     56 H281        25.2570   -14.0890    24.3320 ha         1 YVM       0.111000
     57 H041        24.9400   -12.2830    26.3550 h1         1 YVM       0.079700
     58 H052        26.3750   -14.3030    26.5920 hc         1 YVM       0.068200
     59 H051        27.7520   -13.2850    26.9760 hc         1 YVM       0.068200
     60 H071        24.6010   -13.2550    30.6640 h1         1 YVM       0.081700
     61 H082        21.8440   -12.2830    29.7840 hc         1 YVM       0.061200
     62 H081        22.3560   -12.5660    31.4380 hc         1 YVM       0.061200
     63 H091        23.5370   -10.4950    29.5300 hc         1 YVM       0.089700
     64 H141        24.5930   -15.4870    28.5290 hc         1 YVM       0.074700
     65 H142        25.0560   -15.7000    30.1950 hc         1 YVM       0.074700
     66 H232        24.2730   -11.2480    32.3800 hc         1 YVM       0.063200
     67 H231        25.3690   -10.8020    31.0750 hc         1 YVM       0.063200
     68 H251        29.3430   -11.7740    22.8070 ha         1 YVM       0.117000
     69 H291        25.6350   -13.7230    21.9260 ha         1 YVM       0.117000
     70 H301        27.3130    -8.5130    27.2450 h1         1 YVM       0.090700
     71 H322        27.7530    -9.3280    24.9970 hc         1 YVM       0.065200
     72 H321        27.5850    -7.5880    25.0020 hc         1 YVM       0.065200
     73 H341        23.8180    -6.7070    22.2380 ha         1 YVM       0.131000
     74 H351        25.6230    -6.5090    23.9080 ha         1 YVM       0.119500
     75 H371        26.0440   -10.7690    23.9510 ha         1 YVM       0.119500
     76 H381        24.2480   -10.9680    22.2790 ha         1 YVM       0.131000
     77 H411        25.5150    -4.1540    27.3370 hc         1 YVM       0.076700
     78 H412        24.5870    -5.0030    26.1100 hc         1 YVM       0.076700
     79 H431        23.1820    -4.4880    28.0150 h1         1 YVM       0.030200
     80 H432        23.3150    -6.2330    27.8350 h1         1 YVM       0.030200
     81 H451        22.6970    -4.7050    30.2940 h1         1 YVM       0.042200
     82 H452        22.8250    -6.4600    30.2160 h1         1 YVM       0.042200
     83 H471        24.8930    -5.5770    33.7740 ha         1 YVM       0.257000
     84 H021        27.4390   -10.8610    26.8650 hn         1 YVM       0.329500
     85 H061        23.6080   -12.8620    27.9120 hn         1 YVM       0.320500
     86 H111        22.3350    -8.1220    32.1560 hn         1 YVM       0.325500
     87 H311        24.6180    -7.5640    26.6450 hn         1 YVM       0.337500
     88 C14         24.1930   -15.7150    29.5200 c3         1 YVM      -0.137400
     89 C18         25.5430   -12.5670    28.4200 c          1 YVM       0.584100
     90 C40         26.0710    -6.1900    27.0730 c          1 YVM       0.614100
@<TRIPOS>BOND
     1     1    15 1   
     2     1    36 1   
     3     1    39 2   
     4     2    13 1   
     5     2    45 1   
     6     2    46 1   
     7     2    88 1   
     8     3    40 1   
     9     3    41 2   
    10     3    88 1   
    11     4     5 1   
    12     4    40 1   
    13     4    47 1   
    14     4    48 1   
    15     5    49 1   
    16     5    50 1   
    17     5    51 1   
    18     6    16 1   
    19     6    36 1   
    20     6    52 1   
    21     6    53 1   
    22     7    17 ar  
    23     7    19 ar  
    24     7    54 1   
    25     8    17 ar  
    26     8    18 ar  
    27     8    55 1   
    28     9    18 ar  
    29     9    19 ar  
    30     9    56 1   
    31    10    20 1   
    32    10    34 1   
    33    10    38 2   
    34    11    12 1   
    35    11    34 1   
    36    11    57 1   
    37    11    89 1   
    38    12    18 1   
    39    12    58 1   
    40    12    59 1   
    41    13    14 1   
    42    13    35 1   
    43    13    60 1   
    44    14    15 1   
    45    14    61 1   
    46    14    62 1   
    47    15    16 1   
    48    15    63 1   
    49    16    66 1   
    50    16    67 1   
    51    17    68 1   
    52    19    69 1   
    53    20    21 1   
    54    20    37 1   
    55    20    70 1   
    56    21    25 1   
    57    21    71 1   
    58    21    72 1   
    59    22    23 ar  
    60    22    27 ar  
    61    22    33 1   
    62    23    24 ar  
    63    23    73 1   
    64    24    25 ar  
    65    24    74 1   
    66    25    26 ar  
    67    26    27 ar  
    68    26    75 1   
    69    27    76 1   
    70    28    29 1   
    71    28    77 1   
    72    28    78 1   
    73    28    90 1   
    74    29    44 1   
    75    29    79 1   
    76    29    80 1   
    77    30    31 1   
    78    30    44 1   
    79    30    81 1   
    80    30    82 1   
    81    31    32 3   
    82    32    83 1   
    83    34    84 1   
    84    35    85 1   
    85    35    89 1   
    86    36    86 1   
    87    37    87 1   
    88    37    90 1   
    89    42    89 2   
    90    43    90 2   
    91    64    88 1   
    92    65    88 1   
@<TRIPOS>SUBSTRUCTURE
     1 YVM         1 TEMP              0 ****  ****    0 ROOT
