@<TRIPOS>MOLECULE
YVM
   90    92     1     0     0
SMALL
No Charge or Current Charge


@<TRIPOS>ATOM
      1 C10         21.7750   -10.3540    30.3570 c          1 YVM       0.562000
      2 C13         23.8230   -15.1030    30.4070 c3         1 YVM      -0.083400
      3 C15         24.7650   -17.4580    30.5980 c          1 YVM       0.592100
      4 C20         24.0450   -19.5730    29.7020 c3         1 YVM       0.167600
      5 C21         23.6650   -20.1550    28.3320 c3         1 YVM      -0.097100
      6 C22         23.6980    -8.9880    30.7000 c5         1 YVM       0.098000
      7 C24         27.2790   -12.5360    21.9310 ca         1 YVM      -0.104000
      8 C26         28.1810   -12.5890    24.1920 ca         1 YVM      -0.109000
      9 C28         25.9280   -13.4010    23.7630 ca         1 YVM      -0.109000
     10 C01         25.5300    -9.9870    26.6380 c          1 YVM       0.596100
     11 C04         25.8710   -12.4750    26.8710 c3         1 YVM       0.037700
     12 C05         26.8070   -13.4720    26.1490 c3         1 YVM      -0.040100
     13 C07         24.0830   -13.6070    30.1110 c3         1 YVM       0.104700
     14 C08         22.8410   -12.7210    30.3870 c3         1 YVM      -0.071400
     15 C09         23.0190   -11.2050    30.0730 c5         1 YVM      -0.155700
     16 C23         24.1160   -10.4720    30.8950 c5         1 YVM      -0.094400
     17 C25         28.3300   -12.2830    22.8280 ca         1 YVM      -0.107500
     18 C27         26.9790   -13.1490    24.6680 ca         1 YVM      -0.088300
     19 C29         26.0780   -13.0960    22.3990 ca         1 YVM      -0.107500
     20 C30         26.2460    -8.6080    26.6260 c3         1 YVM       0.040700
     21 C32         27.1400    -8.4110    25.3730 c3         1 YVM      -0.049100
     22 C33         24.8660    -8.0680    21.6930 ca         1 YVM       0.173000
     23 C34         25.2640    -6.9090    22.3760 ca         1 YVM      -0.150000
     24 C35         26.0020    -7.0180    23.5680 ca         1 YVM      -0.078000
     25 C36         26.3420    -8.2870    24.0780 ca         1 YVM      -0.102300
     26 C37         25.9370    -9.4450    23.3840 ca         1 YVM      -0.078000
     27 C38         25.2000    -9.3350    22.1920 ca         1 YVM      -0.150000
     28 C41         24.2920    -5.3450    27.3330 c3         1 YVM      -0.161400
     29 C43         23.4530    -5.4520    28.6200 c3         1 YVM       0.163600
     30 C45         23.5930    -5.0830    31.0000 c3         1 YVM       0.241700
     31 C46         24.5630    -4.7490    32.0510 c1         1 YVM      -0.150100
     32 C47         25.3520    -4.4970    32.9340 c1         1 YVM      -0.219000
     33 F39         24.1570    -7.9630    20.5470 f          1 YVM      -0.180000
     34 N02         26.3580   -11.0860    26.7300 ns         1 YVM      -0.488900
     35 N06         24.5450   -13.4180    28.7320 ns         1 YVM      -0.494900
     36 N11         22.2420    -9.1180    30.7150 ns         1 YVM      -0.515900
     37 N31         25.2510    -7.5190    26.7560 ns         1 YVM      -0.497900
     38 O03         24.3110   -10.1050    26.6010 o          1 YVM      -0.608100
     39 O12         20.6120   -10.6940    30.4990 o          1 YVM      -0.561000
     40 O16         24.3880   -18.1920    29.5030 os         1 YVM      -0.455100
     41 O17         24.8060   -17.8900    31.7420 o          1 YVM      -0.488000
     42 O19         26.5910   -12.5250    29.2030 o          1 YVM      -0.610100
     43 O42         26.5680    -6.0100    27.8330 o          1 YVM      -0.600100
     44 O44         24.2670    -5.0560    29.7320 os         1 YVM      -0.440000
     45 H131        23.0170   -15.4680    29.7570 hc         1 YVM       0.062700
     46 H1          23.4620   -15.2000    31.4390 hc         1 YVM       0.062700
     47 H201        24.8940   -20.1330    30.1160 h1         1 YVM       0.048200
     48 H202        23.1940   -19.6710    30.3900 h1         1 YVM       0.048200
     49 H211        23.3930   -21.2120    28.4310 hc         1 YVM       0.046700
     50 H212        22.8080   -19.6180    27.9080 hc         1 YVM       0.046700
     51 H213        24.5060   -20.0800    27.6330 hc         1 YVM       0.046700
     52 H221        24.0550    -8.5930    29.7380 h1         1 YVM       0.049200
     53 H222        24.0800    -8.3450    31.5040 h1         1 YVM       0.049200
     54 H241        27.3940   -12.2980    20.8760 ha         1 YVM       0.118000
     55 H261        29.0010   -12.3870    24.8780 ha         1 YVM       0.111000
     56 H281        24.9940   -13.8320    24.1170 ha         1 YVM       0.111000
     57 H041        24.8760   -12.5490    26.4140 h1         1 YVM       0.079700
     58 H052        26.4010   -14.4850    26.2610 hc         1 YVM       0.068200
     59 H051        27.7810   -13.4810    26.6530 hc         1 YVM       0.068200
     60 H071        24.8750   -13.2750    30.7970 h1         1 YVM       0.081700
     61 H082        22.0010   -13.1100    29.7980 hc         1 YVM       0.061200
     62 H081        22.5530   -12.8420    31.4390 hc         1 YVM       0.061200
     63 H091        23.2490   -11.0690    29.0110 hc         1 YVM       0.089700
     64 H141        25.3700   -15.9660    29.1740 hc         1 YVM       0.074700
     65 H142        25.8780   -15.6350    30.8720 hc         1 YVM       0.074700
     66 H232        24.0730   -10.7510    31.9550 hc         1 YVM       0.063200
     67 H231        25.1330   -10.6680    30.5420 hc         1 YVM       0.063200
     68 H251        29.2600   -11.8480    22.4670 ha         1 YVM       0.117000
     69 H291        25.2630   -13.2920    21.7050 ha         1 YVM       0.117000
     70 H301        26.8920    -8.5970    27.5140 h1         1 YVM       0.090700
     71 H322        27.8570    -9.2370    25.2970 hc         1 YVM       0.065200
     72 H321        27.7480    -7.5100    25.5200 hc         1 YVM       0.065200
     73 H341        25.0010    -5.9310    21.9830 ha         1 YVM       0.131000
     74 H351        26.3080    -6.1160    24.0950 ha         1 YVM       0.119500
     75 H371        26.1920   -10.4290    23.7680 ha         1 YVM       0.119500
     76 H381        24.8890   -10.2290    21.6580 ha         1 YVM       0.131000
     77 H411        24.6490    -4.3150    27.2280 hc         1 YVM       0.076700
     78 H412        23.6250    -5.6060    26.5030 hc         1 YVM       0.076700
     79 H431        22.5760    -4.7970    28.5330 h1         1 YVM       0.030200
     80 H432        23.0990    -6.4850    28.7440 h1         1 YVM       0.030200
     81 H451        22.7720    -4.3540    31.0220 h1         1 YVM       0.042200
     82 H452        23.1770    -6.0790    31.2030 h1         1 YVM       0.042200
     83 H471        26.0610    -4.2700    33.7060 ha         1 YVM       0.257000
     84 H021        27.3540   -10.9140    26.7860 hn         1 YVM       0.329500
     85 H061        23.8960   -13.6220    27.9820 hn         1 YVM       0.320500
     86 H111        21.5830    -8.4230    31.0470 hn         1 YVM       0.325500
     87 H311        24.3190    -7.6850    26.3940 hn         1 YVM       0.337500
     88 C14         25.0720   -16.0060    30.2280 c3         1 YVM      -0.137400
     89 C18         25.7300   -12.8070    28.3780 c          1 YVM       0.584100
     90 C40         25.4820    -6.3030    27.3540 c          1 YVM       0.614100
@<TRIPOS>BOND
     1     1    15 1   
     2     1    36 1   
     3     1    39 2   
     4     2    13 1   
     5     2    45 1   
     6     2    46 1   
     7     2    88 1   
     8     3    40 1   
     9     3    41 2   
    10     3    88 1   
    11     4     5 1   
    12     4    40 1   
    13     4    47 1   
    14     4    48 1   
    15     5    49 1   
    16     5    50 1   
    17     5    51 1   
    18     6    16 1   
    19     6    36 1   
    20     6    52 1   
    21     6    53 1   
    22     7    17 ar  
    23     7    19 ar  
    24     7    54 1   
    25     8    17 ar  
    26     8    18 ar  
    27     8    55 1   
    28     9    18 ar  
    29     9    19 ar  
    30     9    56 1   
    31    10    20 1   
    32    10    34 1   
    33    10    38 2   
    34    11    12 1   
    35    11    34 1   
    36    11    57 1   
    37    11    89 1   
    38    12    18 1   
    39    12    58 1   
    40    12    59 1   
    41    13    14 1   
    42    13    35 1   
    43    13    60 1   
    44    14    15 1   
    45    14    61 1   
    46    14    62 1   
    47    15    16 1   
    48    15    63 1   
    49    16    66 1   
    50    16    67 1   
    51    17    68 1   
    52    19    69 1   
    53    20    21 1   
    54    20    37 1   
    55    20    70 1   
    56    21    25 1   
    57    21    71 1   
    58    21    72 1   
    59    22    23 ar  
    60    22    27 ar  
    61    22    33 1   
    62    23    24 ar  
    63    23    73 1   
    64    24    25 ar  
    65    24    74 1   
    66    25    26 ar  
    67    26    27 ar  
    68    26    75 1   
    69    27    76 1   
    70    28    29 1   
    71    28    77 1   
    72    28    78 1   
    73    28    90 1   
    74    29    44 1   
    75    29    79 1   
    76    29    80 1   
    77    30    31 1   
    78    30    44 1   
    79    30    81 1   
    80    30    82 1   
    81    31    32 3   
    82    32    83 1   
    83    34    84 1   
    84    35    85 1   
    85    35    89 1   
    86    36    86 1   
    87    37    87 1   
    88    37    90 1   
    89    42    89 2   
    90    43    90 2   
    91    64    88 1   
    92    65    88 1   
@<TRIPOS>SUBSTRUCTURE
     1 YVM         1 TEMP              0 ****  ****    0 ROOT
