@<TRIPOS>MOLECULE
YVN
   64    65     1     0     0
SMALL
No Charge or Current Charge


@<TRIPOS>ATOM
      1 OBH          7.2650     0.4870     1.0390 o          1 YVN      -0.897833
      2 PBF          6.4560     1.2610     2.0220 p5         1 YVN       1.253900
      3 OBI          7.2550     1.4460     3.2670 o          1 YVN      -0.897833
      4 OBG          6.1290     2.6000     1.4540 o          1 YVN      -0.897833
      5 OBE          5.1030     0.4630     2.3820 os         1 YVN      -0.404500
      6 CBD          4.0880     0.0870     1.5390 ca         1 YVN       0.328100
      7 CBC          2.9990    -0.5970     2.1020 ca         1 YVN      -0.216000
      8 CBB          1.9220    -1.0130     1.3030 ca         1 YVN      -0.062500
      9 CBJ          4.0880     0.3580     0.1540 ca         1 YVN      -0.216000
     10 CBK          3.0110    -0.0570    -0.6470 ca         1 YVN      -0.062500
     11 CBA          1.9270    -0.7540    -0.0810 ca         1 YVN      -0.233300
     12 CAZ          0.7810    -1.1840    -0.9560 cx         1 YVN       0.066600
     13 CAF          0.8900    -2.3530    -1.9140 cx         1 YVN      -0.222700
     14 CAC          2.1730    -3.1460    -1.9590 c          1 YVN       0.638100
     15 OAD          2.3330    -4.2020    -1.3640 o          1 YVN      -0.587100
     16 NAB          3.1410    -2.5950    -2.7630 ns         1 YVN      -0.513900
     17 CAA          4.4730    -3.1640    -2.9600 c3         1 YVN       0.101300
     18 CAG         -0.0040    -2.4500    -0.6850 cx         1 YVN      -0.223700
     19 CAH         -1.4980    -2.4010    -0.8450 c          1 YVN       0.642100
     20 OAI         -2.1040    -3.0940    -1.6490 o          1 YVN      -0.638100
     21 NAJ         -2.1180    -1.5140    -0.0010 ns         1 YVN      -0.491900
     22 CAK         -3.5790    -1.2740     0.0740 c3         1 YVN       0.038700
     23 CAW         -4.2470    -2.1040     1.2170 c3         1 YVN      -0.062700
     24 CAX         -4.1680    -3.6280     0.9680 c3         1 YVN      -0.090100
     25 CAY         -3.7030    -1.7420     2.6220 c3         1 YVN      -0.090100
     26 CAL         -3.8680     0.2510     0.2010 c          1 YVN       0.590100
     27 OAM         -2.9940     1.0830     0.4130 o          1 YVN      -0.581100
     28 NAN         -5.1930     0.6120     0.0570 ns         1 YVN      -0.497900
     29 CAO         -5.7220     1.9930     0.1560 c3         1 YVN       0.048700
     30 CAT         -7.0680     2.0010     0.9460 c          1 YVN       0.596100
     31 OAV         -7.6370     0.9900     1.3290 o          1 YVN      -0.610100
     32 NAU         -7.6180     3.2110     1.1990 nt         1 YVN      -0.601000
     33 CAP         -5.8520     2.6520    -1.2470 c3         1 YVN      -0.177400
     34 CAQ         -4.5050     2.7960    -1.9540 c          1 YVN       0.600100
     35 OAS         -3.7250     3.7030    -1.7220 o          1 YVN      -0.582100
     36 NAR         -4.2220     1.8730    -2.8990 nt         1 YVN      -0.612000
     37 HBC          2.9900    -0.8020     3.1690 ha         1 YVN       0.130000
     38 HBB          1.0860    -1.5320     1.7650 ha         1 YVN       0.064000
     39 HBJ          4.9110     0.8890    -0.3110 ha         1 YVN       0.130000
     40 HBK          3.0210     0.1640    -1.7120 ha         1 YVN       0.064000
     41 HAZ          0.2160    -0.3270    -1.3180 hc         1 YVN       0.074700
     42 HAF          0.3930    -2.2420    -2.8740 hc         1 YVN       0.078700
     43 HNAB         2.9110    -1.7190    -3.2150 hn         1 YVN       0.305500
     44 HAA1         4.3850    -4.1690    -3.3920 h1         1 YVN       0.033033
     45 HAA2         5.0470    -2.5240    -3.6430 h1         1 YVN       0.033033
     46 HAA3         4.9940    -3.2240    -1.9960 h1         1 YVN       0.033033
     47 HAG          0.3370    -3.0940     0.1200 hc         1 YVN       0.118700
     48 HNAJ        -1.5120    -0.9650     0.5970 hn         1 YVN       0.338500
     49 HAK         -4.0310    -1.5800    -0.8790 h1         1 YVN       0.088700
     50 HAW         -5.3150    -1.8550     1.2190 hc         1 YVN       0.030700
     51 HAX1        -3.1320    -3.9860     1.0220 hc         1 YVN       0.039200
     52 HAX2        -4.7520    -4.1730     1.7200 hc         1 YVN       0.039200
     53 HAX3        -4.5700    -3.8820    -0.0200 hc         1 YVN       0.039200
     54 HAY1        -3.8280    -0.6730     2.8320 hc         1 YVN       0.039200
     55 HAY2        -4.2430    -2.2990     3.3980 hc         1 YVN       0.039200
     56 HAY3        -2.6380    -1.9880     2.7100 hc         1 YVN       0.039200
     57 HNAN        -5.8600    -0.1430    -0.0650 hn         1 YVN       0.316500
     58 HAO         -5.0260     2.5950     0.7560 h1         1 YVN       0.100700
     59 HAU1        -7.1590     4.0550     0.8910 hn         1 YVN       0.316500
     60 HAU2        -8.4910     3.2580     1.7040 hn         1 YVN       0.316500
     61 HAP1        -6.5210     2.0240    -1.8470 hc         1 YVN       0.066200
     62 HAP2        -6.2820     3.6540    -1.1340 hc         1 YVN       0.066200
     63 HAR1        -4.8800     1.1330    -3.0960 hn         1 YVN       0.312000
     64 HAR2        -3.3500     1.9330    -3.4020 hn         1 YVN       0.312000
@<TRIPOS>BOND
     1     1     2 1   
     2     2     3 1   
     3     2     4 1   
     4     2     5 1   
     5     5     6 1   
     6     6     7 ar  
     7     6     9 ar  
     8     7     8 ar  
     9     7    37 1   
    10     8    11 ar  
    11     8    38 1   
    12     9    10 ar  
    13     9    39 1   
    14    10    11 ar  
    15    10    40 1   
    16    11    12 1   
    17    12    13 1   
    18    12    18 1   
    19    12    41 1   
    20    13    14 1   
    21    13    18 1   
    22    13    42 1   
    23    14    15 2   
    24    14    16 1   
    25    16    17 1   
    26    16    43 1   
    27    17    44 1   
    28    17    45 1   
    29    17    46 1   
    30    18    19 1   
    31    18    47 1   
    32    19    20 2   
    33    19    21 1   
    34    21    22 1   
    35    21    48 1   
    36    22    23 1   
    37    22    26 1   
    38    22    49 1   
    39    23    24 1   
    40    23    25 1   
    41    23    50 1   
    42    24    51 1   
    43    24    52 1   
    44    24    53 1   
    45    25    54 1   
    46    25    55 1   
    47    25    56 1   
    48    26    27 2   
    49    26    28 1   
    50    28    29 1   
    51    28    57 1   
    52    29    30 1   
    53    29    33 1   
    54    29    58 1   
    55    30    31 2   
    56    30    32 1   
    57    32    59 1   
    58    32    60 1   
    59    33    34 1   
    60    33    61 1   
    61    33    62 1   
    62    34    35 2   
    63    34    36 1   
    64    36    63 1   
    65    36    64 1   
@<TRIPOS>SUBSTRUCTURE
     1 YVN         1 TEMP              0 ****  ****    0 ROOT
