@<TRIPOS>MOLECULE
YVN
   64    65     1     0     0
SMALL
bcc


@<TRIPOS>ATOM
      1 OBH          7.7450     0.5830     1.4730 o          1 YVN      -0.897833
      2 PBF          7.0000     1.8870     1.7030 p5         1 YVN       1.253900
      3 OBI          7.3660     2.6340     2.9710 o          1 YVN      -0.897833
      4 OBG          6.7840     2.7390     0.4680 o          1 YVN      -0.897833
      5 OBE          5.3750     1.3870     2.1490 os         1 YVN      -0.404500
      6 CBD          4.4980     0.8290     1.3220 ca         1 YVN       0.328100
      7 CBC          3.1440     0.8810     1.6790 ca         1 YVN      -0.234000
      8 CBB          2.1690     0.3040     0.8820 ca         1 YVN      -0.080500
      9 CBJ          4.8320     0.1750     0.1270 ca         1 YVN      -0.234000
     10 CBK          3.8420    -0.3940    -0.6600 ca         1 YVN      -0.080500
     11 CBA          2.4970    -0.3430    -0.3040 ca         1 YVN      -0.233300
     12 CAZ          1.4510    -0.9140    -1.1950 cx         1 YVN       0.066600
     13 CAF          1.3030    -2.3940    -1.4220 cx         1 YVN      -0.222700
     14 CAC          2.2070    -3.3320    -0.6900 c          1 YVN       0.705100
     15 OAD          2.2580    -3.3950     0.5310 o          1 YVN      -0.587100
     16 NAB          2.9750    -4.0890    -1.4860 ns         1 YVN      -0.580900
     17 CAA          3.9480    -5.0200    -0.9660 c3         1 YVN       0.101300
     18 CAG          0.2740    -1.6450    -0.6260 cx         1 YVN      -0.223700
     19 CAH         -1.0660    -1.4010    -1.2300 c          1 YVN       0.709100
     20 OAI         -1.2250    -1.2610    -2.4340 o          1 YVN      -0.638100
     21 NAJ         -2.0640    -1.3340    -0.3300 ns         1 YVN      -0.558900
     22 CAK         -3.4210    -0.9830    -0.6500 c3         1 YVN       0.038700
     23 CAW         -4.3970    -2.1670    -0.4770 c3         1 YVN      -0.062700
     24 CAX         -4.0170    -3.3060    -1.4150 c3         1 YVN      -0.090100
     25 CAY         -4.4860    -2.6450     0.9680 c3         1 YVN      -0.090100
     26 CAL         -3.8370     0.2140     0.2030 c          1 YVN       0.657100
     27 OAM         -3.2050     0.5740     1.1830 o          1 YVN      -0.581100
     28 NAN         -4.9520     0.8420    -0.2010 ns         1 YVN      -0.564900
     29 CAO         -5.5060     1.9340     0.5540 c3         1 YVN       0.048700
     30 CAT         -5.9610     1.4670     1.9410 c          1 YVN       0.663100
     31 OAV         -6.4340     0.3580     2.1190 o          1 YVN      -0.610100
     32 NAU         -5.8530     2.4010     2.8940 nt         1 YVN      -0.668000
     33 CAP         -6.7060     2.5140    -0.1880 c3         1 YVN      -0.177400
     34 CAQ         -6.2910     3.1200    -1.5180 c          1 YVN       0.667100
     35 OAS         -5.3550     3.9030    -1.5940 o          1 YVN      -0.582100
     36 NAR         -7.0230     2.7390    -2.5700 nt         1 YVN      -0.679000
     37 HBC          2.8620     1.3800     2.5990 ha         1 YVN       0.148000
     38 HBB          1.1320     0.3680     1.1920 ha         1 YVN       0.082000
     39 HBJ          5.8670     0.0880    -0.1700 ha         1 YVN       0.148000
     40 HBK          4.1310    -0.8950    -1.5780 ha         1 YVN       0.082000
     41 HAZ          1.2340    -0.3290    -2.0830 hc         1 YVN       0.074700
     42 HAF          1.0290    -2.6850    -2.4300 hc         1 YVN       0.078700
     43 HNAB         2.9090    -3.9740    -2.4830 hn         1 YVN       0.305500
     44 HAA1         3.4790    -5.7840    -0.3450 h1         1 YVN       0.033033
     45 HAA2         4.4350    -5.5110    -1.8030 h1         1 YVN       0.033033
     46 HAA3         4.7110    -4.5170    -0.3710 h1         1 YVN       0.033033
     47 HAG          0.3000    -1.8270     0.4420 hc         1 YVN       0.118700
     48 HNAJ        -1.8240    -1.3980     0.6470 hn         1 YVN       0.338500
     49 HAK         -3.4450    -0.6790    -1.7000 h1         1 YVN       0.088700
     50 HAW         -5.3870    -1.8070    -0.7750 hc         1 YVN       0.030700
     51 HAX1        -3.0530    -3.7400    -1.1440 hc         1 YVN       0.039200
     52 HAX2        -4.7620    -4.1010    -1.3680 hc         1 YVN       0.039200
     53 HAX3        -3.9540    -2.9680    -2.4510 hc         1 YVN       0.039200
     54 HAY1        -4.8540    -1.8660     1.6350 hc         1 YVN       0.039200
     55 HAY2        -5.1740    -3.4880     1.0430 hc         1 YVN       0.039200
     56 HAY3        -3.5180    -2.9870     1.3420 hc         1 YVN       0.039200
     57 HNAN        -5.4770     0.4690    -0.9780 hn         1 YVN       0.316500
     58 HAO         -4.7510     2.7170     0.6650 h1         1 YVN       0.100700
     59 HAU1        -5.4000     3.2820     2.7260 hn         1 YVN       0.316500
     60 HAU2        -6.1810     2.2190     3.8290 hn         1 YVN       0.316500
     61 HAP1        -7.4770     1.7500    -0.3100 hc         1 YVN       0.066200
     62 HAP2        -7.1450     3.3130     0.4140 hc         1 YVN       0.066200
     63 HAR1        -7.7990     2.1070    -2.4770 hn         1 YVN       0.312000
     64 HAR2        -6.8460     3.1240    -3.4840 hn         1 YVN       0.312000
@<TRIPOS>BOND
     1     1     2 1   
     2     2     3 1   
     3     2     4 1   
     4     2     5 1   
     5     5     6 1   
     6     6     7 ar  
     7     6     9 ar  
     8     7     8 ar  
     9     7    37 1   
    10     8    11 ar  
    11     8    38 1   
    12     9    10 ar  
    13     9    39 1   
    14    10    11 ar  
    15    10    40 1   
    16    11    12 1   
    17    12    13 1   
    18    12    18 1   
    19    12    41 1   
    20    13    14 1   
    21    13    18 1   
    22    13    42 1   
    23    14    15 2   
    24    14    16 1   
    25    16    17 1   
    26    16    43 1   
    27    17    44 1   
    28    17    45 1   
    29    17    46 1   
    30    18    19 1   
    31    18    47 1   
    32    19    20 2   
    33    19    21 1   
    34    21    22 1   
    35    21    48 1   
    36    22    23 1   
    37    22    26 1   
    38    22    49 1   
    39    23    24 1   
    40    23    25 1   
    41    23    50 1   
    42    24    51 1   
    43    24    52 1   
    44    24    53 1   
    45    25    54 1   
    46    25    55 1   
    47    25    56 1   
    48    26    27 2   
    49    26    28 1   
    50    28    29 1   
    51    28    57 1   
    52    29    30 1   
    53    29    33 1   
    54    29    58 1   
    55    30    31 2   
    56    30    32 1   
    57    32    59 1   
    58    32    60 1   
    59    33    34 1   
    60    33    61 1   
    61    33    62 1   
    62    34    35 2   
    63    34    36 1   
    64    36    63 1   
    65    36    64 1   
@<TRIPOS>SUBSTRUCTURE
     1 YVN         1 TEMP              0 ****  ****    0 ROOT
