@<TRIPOS>MOLECULE
YVO
   60    65     1     0     0
SMALL
abcg2


@<TRIPOS>ATOM
      1 C12        -25.2370   -11.2390    14.1330 c          1 YVO       0.690100
      2 C01        -22.4440   -12.5980    15.9220 c3         1 YVO      -0.094100
      3 C02        -22.9740   -12.1350    14.5720 c3         1 YVO       0.189000
      4 C04        -25.1370   -13.4910    14.5900 c5         1 YVO       0.087000
      5 C05        -26.5790   -13.0060    14.6330 cy         1 YVO       0.137000
      6 C06        -27.3730   -13.0140    15.9500 cy         1 YVO      -0.077900
      7 C07        -28.6300   -13.4090    15.1460 cy         1 YVO      -0.079700
      8 C08        -29.5310   -14.4780    15.7200 c3         1 YVO       0.160800
      9 C10        -27.7060   -13.8030    13.9780 cy         1 YVO      -0.077900
     10 C14        -22.3630   -12.8450    13.3820 ca         1 YVO      -0.134300
     11 C15        -22.3640   -12.2370    12.1180 ca         1 YVO      -0.056200
     12 C17        -22.5900   -10.8180    10.3960 cc         1 YVO      -0.053300
     13 C18        -23.0810    -9.5300     9.7740 c          1 YVO       0.720200
     14 C21        -21.9720   -11.9380     9.8800 cd         1 YVO      -0.146400
     15 C22        -21.4920   -12.2000     8.5180 ca         1 YVO       0.032200
     16 C23        -20.6260   -11.3190     7.8670 ca         1 YVO      -0.037000
     17 C24        -20.1270   -11.5790     6.5960 ca         1 YVO      -0.143000
     18 C25        -20.5130   -12.7550     5.9810 ca         1 YVO      -0.065000
     19 C27        -20.7400   -14.4530     4.4650 c          1 YVO       0.562000
     20 C29        -21.5850   -14.8130     5.6800 c5         1 YVO      -0.110100
     21 C30        -21.3720   -13.6560     6.6050 ca         1 YVO      -0.156300
     22 C31        -21.8590   -13.3850     7.8650 ca         1 YVO      -0.066000
     23 C32        -21.8230   -12.8570    10.9710 ca         1 YVO      -0.088800
     24 C33        -21.2610   -14.1340    11.0890 ca         1 YVO      -0.062000
     25 C34        -21.2660   -14.7480    12.3230 ca         1 YVO      -0.170000
     26 C35        -21.8110   -14.1100    13.4510 ca         1 YVO      -0.110000
     27 N03        -24.4240   -12.2370    14.5330 n          1 YVO      -0.442800
     28 N09        -30.5050   -14.9090    14.7290 n8         1 YVO      -0.994200
     29 N16        -22.8100   -11.0130    11.7330 na         1 YVO      -0.191700
     30 N26        -20.1610   -13.2480     4.7300 ns         1 YVO      -0.146000
     31 O11        -26.5020   -11.6760    14.0920 os         1 YVO      -0.405100
     32 O13        -24.9400   -10.1010    13.8380 o          1 YVO      -0.529000
     33 O19        -23.0050    -9.4280     8.5400 o          1 YVO      -0.695000
     34 O20        -23.5320    -8.6980    10.5880 o          1 YVO      -0.695000
     35 O28        -20.5980   -15.1010     3.4500 o          1 YVO      -0.568000
     36 H011       -21.3630   -12.4640    15.9680 hc         1 YVO       0.037033
     37 H021       -22.7450   -11.0700    14.4880 h1         1 YVO       0.084700
     38 H041       -24.9400   -14.1080    13.7060 h1         1 YVO       0.060700
     39 H042       -24.8820   -14.0740    15.4760 h1         1 YVO       0.060700
     40 H061       -27.0390   -13.8270    16.5990 hc         1 YVO       0.063950
     41 H062       -27.3890   -12.0880    16.5260 hc         1 YVO       0.063950
     42 H071       -29.2190   -12.5220    14.8920 hc         1 YVO       0.068700
     43 H081       -28.9190   -15.3420    15.9960 h1         1 YVO       0.024200
     44 H082       -29.9800   -14.1070    16.6530 h1         1 YVO       0.024200
     45 H101       -27.9830   -13.5180    12.9630 hc         1 YVO       0.063950
     46 H102       -27.4790   -14.8720    13.9910 hc         1 YVO       0.063950
     47 H231       -20.3260   -10.4110     8.3710 ha         1 YVO       0.133000
     48 H241       -19.4560   -10.8810     6.1120 ha         1 YVO       0.108000
     49 H291       -22.6280   -14.9440     5.3810 hc         1 YVO       0.077200
     50 H292       -21.2520   -15.7670     6.0950 hc         1 YVO       0.077200
     51 H311       -22.5360   -14.0800     8.3480 ha         1 YVO       0.114000
     52 H331       -20.8270   -14.6320    10.2300 ha         1 YVO       0.107000
     53 H341       -20.8380   -15.7360    12.4350 ha         1 YVO       0.092000
     54 H351       -21.7820   -14.6340    14.3980 ha         1 YVO       0.088000
     55 H093       -31.0620   -15.6650    15.1050 hn         1 YVO       0.390500
     56 H091       -31.1550   -14.1540    14.5460 hn         1 YVO       0.390500
     57 H161       -23.3030   -10.3380    12.3010 hn         1 YVO       0.390000
     58 H261       -19.5420   -12.7790     4.0850 hn         1 YVO       0.159000
     59 H013       -22.8930   -12.0020    16.7150 hc         1 YVO       0.037033
     60 H012       -22.6600   -13.6460    16.1250 hc         1 YVO       0.037033
@<TRIPOS>BOND
     1     1    27 1   
     2     1    31 1   
     3     1    32 2   
     4     2     3 1   
     5     2    36 1   
     6     2    59 1   
     7     2    60 1   
     8     3    10 1   
     9     3    27 1   
    10     3    37 1   
    11     4     5 1   
    12     4    27 1   
    13     4    38 1   
    14     4    39 1   
    15     5     6 1   
    16     5     9 1   
    17     5    31 1   
    18     6     7 1   
    19     6    40 1   
    20     6    41 1   
    21     7     8 1   
    22     7     9 1   
    23     7    42 1   
    24     8    28 1   
    25     8    43 1   
    26     8    44 1   
    27     9    45 1   
    28     9    46 1   
    29    10    11 ar  
    30    10    26 ar  
    31    11    23 ar  
    32    11    29 1   
    33    12    13 1   
    34    12    14 2   
    35    12    29 1   
    36    13    33 1   
    37    13    34 1   
    38    14    15 1   
    39    14    23 1   
    40    15    16 ar  
    41    15    22 ar  
    42    16    17 ar  
    43    16    47 1   
    44    17    18 ar  
    45    17    48 1   
    46    18    21 ar  
    47    18    30 1   
    48    19    20 1   
    49    19    30 1   
    50    19    35 2   
    51    20    21 1   
    52    20    49 1   
    53    20    50 1   
    54    21    22 ar  
    55    22    51 1   
    56    23    24 ar  
    57    24    25 ar  
    58    24    52 1   
    59    25    26 ar  
    60    25    53 1   
    61    26    54 1   
    62    28    55 1   
    63    28    56 1   
    64    29    57 1   
    65    30    58 1   
@<TRIPOS>SUBSTRUCTURE
     1 YVO         1 TEMP              0 ****  ****    0 ROOT
