@<TRIPOS>MOLECULE
YVO
   60    65     1     0     0
SMALL
No Charge or Current Charge


@<TRIPOS>ATOM
      1 C12        -25.4080   -11.5450    13.9600 c          1 YVO       0.690100
      2 C01        -22.4090   -12.7140    15.7180 c3         1 YVO      -0.094100
      3 C02        -23.0800   -12.3230    14.3810 c3         1 YVO       0.189000
      4 C04        -25.2120   -13.7960    14.7130 c5         1 YVO       0.087000
      5 C05        -26.6750   -13.2590    14.7960 cy         1 YVO       0.137000
      6 C06        -27.3530   -13.0970    16.2040 cy         1 YVO      -0.077900
      7 C07        -28.7230   -13.3220    15.4790 cy         1 YVO      -0.079700
      8 C08        -29.8660   -13.9840    16.2640 c3         1 YVO       0.160800
      9 C10        -27.8950   -14.1890    14.4700 cy         1 YVO      -0.077900
     10 C14        -22.4650   -13.0060    13.1490 ca         1 YVO      -0.134300
     11 C15        -22.5130   -12.3850    11.8840 ca         1 YVO      -0.056200
     12 C17        -22.8560   -10.8760    10.1740 cc         1 YVO      -0.053300
     13 C18        -23.3470    -9.6700     9.4300 c          1 YVO       0.720200
     14 C21        -22.1870   -12.0090     9.6770 cd         1 YVO      -0.146400
     15 C22        -21.5160   -12.1710     8.3670 ca         1 YVO       0.032200
     16 C23        -20.8060   -11.0930     7.7710 ca         1 YVO      -0.037000
     17 C24        -20.1400   -11.2520     6.5370 ca         1 YVO      -0.143000
     18 C25        -20.2050   -12.5050     5.9240 ca         1 YVO      -0.065000
     19 C27        -19.8950   -14.2590     4.3780 c          1 YVO       0.562000
     20 C29        -20.7660   -14.7820     5.5670 c5         1 YVO      -0.110100
     21 C30        -20.8810   -13.5650     6.4800 ca         1 YVO      -0.156300
     22 C31        -21.5450   -13.4250     7.7070 ca         1 YVO      -0.066000
     23 C32        -21.9640   -12.9520    10.7650 ca         1 YVO      -0.088800
     24 C33        -21.2980   -14.1870    10.8230 ca         1 YVO      -0.062000
     25 C34        -21.2500   -14.8520    12.0640 ca         1 YVO      -0.170000
     26 C35        -21.8330   -14.2740    13.2140 ca         1 YVO      -0.110000
     27 N03        -24.5420   -12.5180    14.4280 n          1 YVO      -0.442800
     28 N09        -31.0430   -14.3650    15.4640 n8         1 YVO      -0.994200
     29 N16        -23.0580   -11.1610    11.5410 na         1 YVO      -0.191700
     30 N26        -19.6550   -12.9430     4.7250 ns         1 YVO      -0.146000
     31 O11        -26.6680   -12.0320    14.0500 os         1 YVO      -0.405100
     32 O13        -25.1000   -10.4480    13.5200 o          1 YVO      -0.529000
     33 O19        -23.2760    -9.6140     8.2110 o          1 YVO      -0.695000
     34 O20        -23.8760    -8.7850    10.0890 o          1 YVO      -0.695000
     35 O28        -19.4960   -14.8360     3.3730 o          1 YVO      -0.568000
     36 H011       -21.3260   -12.5490    15.6660 hc         1 YVO       0.037033
     37 H021       -22.8820   -11.2480    14.2760 h1         1 YVO       0.084700
     38 H041       -25.0590   -14.5110    13.8940 h1         1 YVO       0.060700
     39 H042       -24.8610   -14.2530    15.6470 h1         1 YVO       0.060700
     40 H061       -27.0860   -13.8790    16.9250 hc         1 YVO       0.063950
     41 H062       -27.2220   -12.1240    16.6880 hc         1 YVO       0.063950
     42 H071       -29.1200   -12.4030    15.0300 hc         1 YVO       0.068700
     43 H081       -29.4730   -14.8870    16.7520 h1         1 YVO       0.024200
     44 H082       -30.1900   -13.2870    17.0490 h1         1 YVO       0.024200
     45 H101       -28.2410   -14.1750    13.4310 hc         1 YVO       0.063950
     46 H102       -27.7590   -15.2340    14.7730 hc         1 YVO       0.063950
     47 H231       -20.7430   -10.1370     8.2830 ha         1 YVO       0.133000
     48 H241       -19.5930   -10.4290     6.0830 ha         1 YVO       0.108000
     49 H291       -21.7250   -15.1400     5.1760 hc         1 YVO       0.077200
     50 H292       -20.2660   -15.6420     6.0250 hc         1 YVO       0.077200
     51 H311       -22.1010   -14.2600     8.1240 ha         1 YVO       0.114000
     52 H331       -20.8220   -14.6270     9.9530 ha         1 YVO       0.107000
     53 H341       -20.7520   -15.8160    12.1390 ha         1 YVO       0.092000
     54 H351       -21.7760   -14.8200    14.1510 ha         1 YVO       0.088000
     55 H093       -31.7680   -14.7330    16.0910 hn         1 YVO       0.390500
     56 H091       -31.4680   -13.5160    15.0720 hn         1 YVO       0.390500
     57 H161       -23.5980   -10.5690    12.1690 hn         1 YVO       0.390000
     58 H261       -19.1040   -12.3310     4.1380 hn         1 YVO       0.159000
     59 H013       -22.8060   -12.0970    16.5330 hc         1 YVO       0.037033
     60 H012       -22.5880   -13.7640    15.9750 hc         1 YVO       0.037033
@<TRIPOS>BOND
     1     1    27 1   
     2     1    31 1   
     3     1    32 2   
     4     2     3 1   
     5     2    36 1   
     6     2    59 1   
     7     2    60 1   
     8     3    10 1   
     9     3    27 1   
    10     3    37 1   
    11     4     5 1   
    12     4    27 1   
    13     4    38 1   
    14     4    39 1   
    15     5     6 1   
    16     5     9 1   
    17     5    31 1   
    18     6     7 1   
    19     6    40 1   
    20     6    41 1   
    21     7     8 1   
    22     7     9 1   
    23     7    42 1   
    24     8    28 1   
    25     8    43 1   
    26     8    44 1   
    27     9    45 1   
    28     9    46 1   
    29    10    11 ar  
    30    10    26 ar  
    31    11    23 ar  
    32    11    29 1   
    33    12    13 1   
    34    12    14 2   
    35    12    29 1   
    36    13    33 1   
    37    13    34 1   
    38    14    15 1   
    39    14    23 1   
    40    15    16 ar  
    41    15    22 ar  
    42    16    17 ar  
    43    16    47 1   
    44    17    18 ar  
    45    17    48 1   
    46    18    21 ar  
    47    18    30 1   
    48    19    20 1   
    49    19    30 1   
    50    19    35 2   
    51    20    21 1   
    52    20    49 1   
    53    20    50 1   
    54    21    22 ar  
    55    22    51 1   
    56    23    24 ar  
    57    24    25 ar  
    58    24    52 1   
    59    25    26 ar  
    60    25    53 1   
    61    26    54 1   
    62    28    55 1   
    63    28    56 1   
    64    29    57 1   
    65    30    58 1   
@<TRIPOS>SUBSTRUCTURE
     1 YVO         1 TEMP              0 ****  ****    0 ROOT
