@<TRIPOS>MOLECULE
YVP
   82    83     1     0     0
SMALL
abcg2


@<TRIPOS>ATOM
      1 C10         31.4230    -2.7940     7.6990 c3         1 YVP       0.250700
      2 C01         29.2650    -6.2120     7.1360 c          1 YVP       0.597100
      3 C05         28.5810    -5.1140     7.9160 c3         1 YVP      -0.151400
      4 C08         29.5990    -4.1160     8.4720 c3         1 YVP       0.159600
      5 C11         32.4840    -3.8150     7.8580 c1         1 YVP      -0.205100
      6 C12         33.3350    -4.6700     7.9910 c1         1 YVP      -0.208000
      7 O03         29.8220    -7.1610     7.7190 o          1 YVP      -0.611100
      8 O09         30.1770    -3.4170     7.3860 os         1 YVP      -0.467000
      9 N02         29.2810    -6.0830     5.7940 ns         1 YVP      -0.481900
     10 C04         29.9620    -7.0330     4.9370 c3         1 YVP       0.048700
     11 C06         29.1950    -8.3600     4.8510 c          1 YVP       0.597100
     12 O14         27.9670    -8.4040     4.7860 o          1 YVP      -0.607100
     13 C07         30.1050    -6.4610     3.5130 c3         1 YVP      -0.042100
     14 C40         31.2020    -5.4450     3.3010 ca         1 YVP      -0.084300
     15 C39         31.5780    -5.1350     1.9940 ca         1 YVP      -0.107500
     16 C41         31.8610    -4.8030     4.3350 ca         1 YVP      -0.107500
     17 C38         32.5870    -4.2170     1.7320 ca         1 YVP      -0.109000
     18 C42         32.8760    -3.8820     4.0750 ca         1 YVP      -0.109000
     19 C37         33.2380    -3.5850     2.7750 ca         1 YVP      -0.111000
     20 N13         29.9990    -9.4360     4.7710 ns         1 YVP      -0.476900
     21 C15         29.5440   -10.7460     4.3780 c3         1 YVP       0.035700
     22 C16         29.5240   -11.7130     5.5700 c          1 YVP       0.572100
     23 O19         30.0380   -11.4420     6.6540 o          1 YVP      -0.567100
     24 C17         30.4270   -11.3160     3.2410 c3         1 YVP      -0.042100
     25 C24         30.6150   -10.3360     2.1150 ca         1 YVP      -0.087300
     26 C23         29.5830   -10.0870     1.1980 ca         1 YVP      -0.105500
     27 C25         31.8060    -9.6180     1.9910 ca         1 YVP      -0.105500
     28 C22         29.7430    -9.1460     0.1830 ca         1 YVP      -0.106500
     29 C26         31.9710    -8.6780     0.9750 ca         1 YVP      -0.106500
     30 C21         30.9380    -8.4390     0.0670 ca         1 YVP      -0.112000
     31 N18         28.9340   -12.8920     5.3210 ns         1 YVP      -0.509900
     32 C20         28.8550   -13.9670     6.3020 c3         1 YVP       0.021700
     33 C28         30.2220   -14.5280     6.7080 c3         1 YVP      -0.071400
     34 C31         30.2180   -16.0250     7.0130 c3         1 YVP      -0.109400
     35 C32         31.6120   -16.5700     7.3250 c3         1 YVP       0.235800
     36 N33         32.2350   -15.9720     8.4690 nu         1 YVP      -0.930400
     37 C34         31.9290   -16.2190     9.7460 c2         1 YVP       0.849100
     38 N35         31.1660   -17.3030     9.9810 nv         1 YVP      -1.115200
     39 N36         32.4000   -15.4750    10.6580 n2         1 YVP      -0.932100
     40 C27         27.9870   -13.5970     7.5000 c          1 YVP       0.568100
     41 O30         28.1510   -14.1620     8.5600 o          1 YVP      -0.514100
     42 C29         26.8910   -12.5900     7.2950 c3         1 YVP      -0.194100
     43 H102        31.6430    -2.1390     6.8670 h1         1 YVP       0.062700
     44 H101        31.3660    -2.1630     8.6010 h1         1 YVP       0.062700
     45 H051        28.0640    -5.5820     8.7500 hc         1 YVP       0.072200
     46 H052        27.8440    -4.5930     7.3020 hc         1 YVP       0.072200
     47 H082        29.1240    -3.3990     9.1440 h1         1 YVP       0.043200
     48 H081        30.3680    -4.6470     9.0330 h1         1 YVP       0.043200
     49 H121        34.0770    -5.4500     8.1100 ha         1 YVP       0.264000
     50 H021        28.7790    -5.3160     5.3640 hn         1 YVP       0.331500
     51 H041        30.9510    -7.2400     5.3600 h1         1 YVP       0.080700
     52 H071        30.2730    -7.2870     2.8270 hc         1 YVP       0.066200
     53 H072        29.1440    -6.0310     3.2300 hc         1 YVP       0.066200
     54 H391        31.0810    -5.6310     1.1760 ha         1 YVP       0.118500
     55 H411        31.5970    -5.0060     5.3570 ha         1 YVP       0.118500
     56 H381        32.8580    -3.9950     0.7100 ha         1 YVP       0.112000
     57 H421        33.3760    -3.4050     4.9000 ha         1 YVP       0.112000
     58 H371        34.0310    -2.8750     2.5750 ha         1 YVP       0.112000
     59 H131        30.9900    -9.3030     4.8990 hn         1 YVP       0.328500
     60 H151        28.5200   -10.6300     4.0140 h1         1 YVP       0.089700
     61 H171        31.3980   -11.5910     3.6550 hc         1 YVP       0.057700
     62 H172        29.9600   -12.2300     2.8780 hc         1 YVP       0.057700
     63 H231        28.6500   -10.6330     1.2820 ha         1 YVP       0.112500
     64 H251        32.6090    -9.7990     2.6970 ha         1 YVP       0.112500
     65 H221        28.9360    -8.9670    -0.5190 ha         1 YVP       0.118000
     66 H261        32.9020    -8.1300     0.9000 ha         1 YVP       0.118000
     67 H211        31.0610    -7.7040    -0.7210 ha         1 YVP       0.116000
     68 H181        28.4400   -13.0140     4.4500 hn         1 YVP       0.316500
     69 H201        28.3040   -14.7520     5.8040 h1         1 YVP       0.057700
     70 H281        30.5860   -13.9800     7.5560 hc         1 YVP       0.063200
     71 H282        30.9030   -14.3380     5.8880 hc         1 YVP       0.063200
     72 H311        29.8370   -16.5630     6.1610 hc         1 YVP       0.047200
     73 H312        29.5620   -16.2270     7.8420 hc         1 YVP       0.047200
     74 H321        31.5770   -17.6530     7.4630 h1         1 YVP       0.046200
     75 H322        32.2660   -16.3900     6.4850 h1         1 YVP       0.046200
     76 H331        32.7840   -15.1630     8.3260 hn         1 YVP       0.503000
     77 H5          30.6710   -17.7420     9.2620 hn         1 YVP       0.468500
     78 H361        32.1170   -15.8060    11.5490 hn         1 YVP       0.379400
     79 H1          26.2460   -12.5720     8.1680 hc         1 YVP       0.066033
     80 H2          27.3180   -11.6040     7.1500 hc         1 YVP       0.066033
     81 H3          26.3100   -12.8190     6.4070 hc         1 YVP       0.066033
     82 H351        30.7910   -17.4210    10.8940 hn         1 YVP       0.468500
@<TRIPOS>BOND
     1     1     5 1   
     2     1     8 1   
     3     1    43 1   
     4     1    44 1   
     5     2     3 1   
     6     2     7 2   
     7     2     9 1   
     8     3     4 1   
     9     3    45 1   
    10     3    46 1   
    11     4     8 1   
    12     4    47 1   
    13     4    48 1   
    14     5     6 3   
    15     6    49 1   
    16     9    10 1   
    17     9    50 1   
    18    10    11 1   
    19    10    13 1   
    20    10    51 1   
    21    11    12 2   
    22    11    20 1   
    23    13    14 1   
    24    13    52 1   
    25    13    53 1   
    26    14    15 ar  
    27    14    16 ar  
    28    15    17 ar  
    29    15    54 1   
    30    16    18 ar  
    31    16    55 1   
    32    17    19 ar  
    33    17    56 1   
    34    18    19 ar  
    35    18    57 1   
    36    19    58 1   
    37    20    21 1   
    38    20    59 1   
    39    21    22 1   
    40    21    24 1   
    41    21    60 1   
    42    22    23 2   
    43    22    31 1   
    44    24    25 1   
    45    24    61 1   
    46    24    62 1   
    47    25    26 ar  
    48    25    27 ar  
    49    26    28 ar  
    50    26    63 1   
    51    27    29 ar  
    52    27    64 1   
    53    28    30 ar  
    54    28    65 1   
    55    29    30 ar  
    56    29    66 1   
    57    30    67 1   
    58    31    32 1   
    59    31    68 1   
    60    32    33 1   
    61    32    40 1   
    62    32    69 1   
    63    33    34 1   
    64    33    70 1   
    65    33    71 1   
    66    34    35 1   
    67    34    72 1   
    68    34    73 1   
    69    35    36 1   
    70    35    74 1   
    71    35    75 1   
    72    36    37 1   
    73    36    76 1   
    74    37    38 1   
    75    37    39 2   
    76    38    77 1   
    77    38    82 1   
    78    39    78 1   
    79    40    41 2   
    80    40    42 1   
    81    42    79 1   
    82    42    80 1   
    83    42    81 1   
@<TRIPOS>SUBSTRUCTURE
     1 YVP         1 TEMP              0 ****  ****    0 ROOT
