@<TRIPOS>MOLECULE
YVP
   82    83     1     0     0
SMALL
No Charge or Current Charge


@<TRIPOS>ATOM
      1 C10         30.3410    -1.4300     4.6440 c3         1 YVP       0.250700
      2 C01         29.5210    -5.1370     6.7370 c          1 YVP       0.597100
      3 C05         28.5150    -3.9890     6.6830 c3         1 YVP      -0.151400
      4 C08         29.2030    -2.6380     6.4360 c3         1 YVP       0.159600
      5 C11         31.5220    -1.0410     5.4360 c1         1 YVP      -0.205100
      6 C12         32.4740    -0.7020     6.1030 c1         1 YVP      -0.208000
      7 O03         30.2700    -5.3080     7.6890 o          1 YVP      -0.611100
      8 O09         29.7980    -2.6780     5.1250 os         1 YVP      -0.467000
      9 N02         29.4550    -6.0180     5.6800 ns         1 YVP      -0.481900
     10 C04         30.2540    -7.2590     5.5440 c3         1 YVP       0.048700
     11 C06         29.3440    -8.4350     5.0890 c          1 YVP       0.597100
     12 O14         28.2190    -8.2700     4.6290 o          1 YVP      -0.607100
     13 C07         31.4290    -7.0650     4.5500 c3         1 YVP      -0.042100
     14 C40         32.4020    -5.9570     4.9400 ca         1 YVP      -0.084300
     15 C39         32.5340    -4.8080     4.1350 ca         1 YVP      -0.107500
     16 C41         33.2010    -6.0870     6.0940 ca         1 YVP      -0.107500
     17 C38         33.4530    -3.8030     4.4790 ca         1 YVP      -0.109000
     18 C42         34.1150    -5.0770     6.4410 ca         1 YVP      -0.109000
     19 C37         34.2420    -3.9350     5.6340 ca         1 YVP      -0.111000
     20 N13         29.8900    -9.6930     5.2500 ns         1 YVP      -0.476900
     21 C15         29.2820   -10.9510     4.7540 c3         1 YVP       0.035700
     22 C16         29.3660   -12.0650     5.8330 c          1 YVP       0.572100
     23 O19         30.0550   -11.9690     6.8400 o          1 YVP      -0.567100
     24 C17         29.9540   -11.3990     3.4280 c3         1 YVP      -0.042100
     25 C24         30.0600   -10.2830     2.3920 ca         1 YVP      -0.087300
     26 C23         28.9050    -9.8010     1.7470 ca         1 YVP      -0.105500
     27 C25         31.3120    -9.7150     2.0820 ca         1 YVP      -0.105500
     28 C22         28.9980    -8.7580     0.8080 ca         1 YVP      -0.106500
     29 C26         31.4060    -8.6730     1.1430 ca         1 YVP      -0.106500
     30 C21         30.2490    -8.1930     0.5070 ca         1 YVP      -0.112000
     31 N18         28.5880   -13.1810     5.5810 ns         1 YVP      -0.509900
     32 C20         28.5340   -14.4050     6.4170 c3         1 YVP       0.021700
     33 C28         29.8850   -15.1740     6.3840 c3         1 YVP      -0.071400
     34 C31         29.7880   -16.6330     6.9010 c3         1 YVP      -0.109400
     35 C32         31.0830   -17.4570     6.7190 c3         1 YVP       0.235800
     36 N33         32.1810   -16.9540     7.5600 nu         1 YVP      -0.930400
     37 C34         32.1850   -17.0980     8.8510 c2         1 YVP       0.849100
     38 N35         32.9390   -18.1330     8.9520 nv         1 YVP      -1.115200
     39 N36         32.5330   -16.0680     9.4250 n2         1 YVP      -0.932100
     40 C27         27.9990   -14.0770     7.8480 c          1 YVP       0.568100
     41 O30         28.6630   -14.2210     8.8680 o          1 YVP      -0.514100
     42 C29         26.5580   -13.5680     7.9220 c3         1 YVP      -0.194100
     43 H102        30.6470    -1.5330     3.5940 h1         1 YVP       0.062700
     44 H101        29.5900    -0.6300     4.6930 h1         1 YVP       0.062700
     45 H051        28.0020    -3.9310     7.6500 hc         1 YVP       0.072200
     46 H052        27.7810    -4.1540     5.8860 hc         1 YVP       0.072200
     47 H082        28.4530    -1.8380     6.4970 h1         1 YVP       0.043200
     48 H081        29.9590    -2.4620     7.2140 h1         1 YVP       0.043200
     49 H121        33.3210    -0.4160     6.6970 ha         1 YVP       0.264000
     50 H021        28.7730    -5.8100     4.9600 hn         1 YVP       0.331500
     51 H041        30.6590    -7.5340     6.5260 h1         1 YVP       0.080700
     52 H071        31.9840    -8.0070     4.4640 hc         1 YVP       0.066200
     53 H072        31.0140    -6.8730     3.5530 hc         1 YVP       0.066200
     54 H391        31.9250    -4.6930     3.2410 ha         1 YVP       0.118500
     55 H411        33.1140    -6.9710     6.7220 ha         1 YVP       0.118500
     56 H381        33.5490    -2.9180     3.8540 ha         1 YVP       0.112000
     57 H421        34.7270    -5.1820     7.3350 ha         1 YVP       0.112000
     58 H371        34.9500    -3.1540     5.9020 ha         1 YVP       0.112000
     59 H131        30.8010    -9.7460     5.6910 hn         1 YVP       0.328500
     60 H151        28.2150   -10.7790     4.5630 h1         1 YVP       0.089700
     61 H171        30.9530   -11.7900     3.6570 hc         1 YVP       0.057700
     62 H172        29.3930   -12.2410     3.0050 hc         1 YVP       0.057700
     63 H231        27.9320   -10.2280     1.9790 ha         1 YVP       0.112500
     64 H251        32.2140   -10.0750     2.5720 ha         1 YVP       0.112500
     65 H221        28.1010    -8.3870     0.3170 ha         1 YVP       0.118000
     66 H261        32.3750    -8.2360     0.9110 ha         1 YVP       0.118000
     67 H211        30.3210    -7.3850    -0.2180 ha         1 YVP       0.116000
     68 H181        28.0410   -13.1650     4.7260 hn         1 YVP       0.316500
     69 H201        27.7780   -15.0540     5.9570 h1         1 YVP       0.057700
     70 H281        30.6380   -14.6240     6.9610 hc         1 YVP       0.063200
     71 H282        30.2430   -15.2000     5.3470 hc         1 YVP       0.063200
     72 H311        28.9870   -17.1450     6.3520 hc         1 YVP       0.047200
     73 H312        29.4940   -16.6440     7.9570 hc         1 YVP       0.047200
     74 H321        30.8750   -18.5080     6.9640 h1         1 YVP       0.046200
     75 H322        31.3810   -17.4220     5.6620 h1         1 YVP       0.046200
     76 H331        32.3970   -15.9770     7.4130 hn         1 YVP       0.503000
     77 H5          33.2130   -18.3190     8.0010 hn         1 YVP       0.468500
     78 H361        33.1110   -16.3980    10.2040 hn         1 YVP       0.379400
     79 H1          26.2130   -13.4240     8.9520 hc         1 YVP       0.066033
     80 H2          26.4780   -12.6420     7.3420 hc         1 YVP       0.066033
     81 H3          25.9070   -14.2490     7.3620 hc         1 YVP       0.066033
     82 H351        32.4280   -18.9110     9.3430 hn         1 YVP       0.468500
@<TRIPOS>BOND
     1     1     5 1   
     2     1     8 1   
     3     1    43 1   
     4     1    44 1   
     5     2     3 1   
     6     2     7 2   
     7     2     9 1   
     8     3     4 1   
     9     3    45 1   
    10     3    46 1   
    11     4     8 1   
    12     4    47 1   
    13     4    48 1   
    14     5     6 3   
    15     6    49 1   
    16     9    10 1   
    17     9    50 1   
    18    10    11 1   
    19    10    13 1   
    20    10    51 1   
    21    11    12 2   
    22    11    20 1   
    23    13    14 1   
    24    13    52 1   
    25    13    53 1   
    26    14    15 ar  
    27    14    16 ar  
    28    15    17 ar  
    29    15    54 1   
    30    16    18 ar  
    31    16    55 1   
    32    17    19 ar  
    33    17    56 1   
    34    18    19 ar  
    35    18    57 1   
    36    19    58 1   
    37    20    21 1   
    38    20    59 1   
    39    21    22 1   
    40    21    24 1   
    41    21    60 1   
    42    22    23 2   
    43    22    31 1   
    44    24    25 1   
    45    24    61 1   
    46    24    62 1   
    47    25    26 ar  
    48    25    27 ar  
    49    26    28 ar  
    50    26    63 1   
    51    27    29 ar  
    52    27    64 1   
    53    28    30 ar  
    54    28    65 1   
    55    29    30 ar  
    56    29    66 1   
    57    30    67 1   
    58    31    32 1   
    59    31    68 1   
    60    32    33 1   
    61    32    40 1   
    62    32    69 1   
    63    33    34 1   
    64    33    70 1   
    65    33    71 1   
    66    34    35 1   
    67    34    72 1   
    68    34    73 1   
    69    35    36 1   
    70    35    74 1   
    71    35    75 1   
    72    36    37 1   
    73    36    76 1   
    74    37    38 1   
    75    37    39 2   
    76    38    77 1   
    77    38    82 1   
    78    39    78 1   
    79    40    41 2   
    80    40    42 1   
    81    42    79 1   
    82    42    80 1   
    83    42    81 1   
@<TRIPOS>SUBSTRUCTURE
     1 YVP         1 TEMP              0 ****  ****    0 ROOT
