@<TRIPOS>MOLECULE
YVQ
   35    39     1     0     0
SMALL
bcc


@<TRIPOS>ATOM
      1 CAV          3.0710     0.2080    -0.0480 ca         1 YVQ      -0.080800
      2 CAF          3.8840    -0.6450     0.7050 ca         1 YVQ      -0.076000
      3 CAB          5.1150    -0.1860     1.1310 ca         1 YVQ      -0.155000
      4 CAA          5.5520     1.1130     0.8230 ca         1 YVQ      -0.107000
      5 CAE          4.7660     1.9790     0.0890 ca         1 YVQ      -0.144000
      6 CAU          3.5250     1.5110    -0.3390 ca         1 YVQ      -0.050200
      7 NAO          2.5480     2.1330    -1.0620 na         1 YVQ      -0.165400
      8 CAI          1.5020     1.2850    -1.2440 cc         1 YVQ      -0.099100
      9 CAR          1.7670     0.0820    -0.6370 cd         1 YVQ      -0.084200
     10 CAS          0.9360    -1.1020    -0.6110 cd         1 YVQ      -0.084100
     11 CAD          1.2600    -2.4390    -0.7700 cc         1 YVQ       0.018600
     12 NAM          0.1840    -3.2410    -0.6650 nc         1 YVQ      -0.262600
     13 CAT         -0.8290    -2.4260    -0.4370 cd         1 YVQ      -0.174600
     14 CAG         -2.2020    -2.6740    -0.2430 cd         1 YVQ       0.474200
     15 NAL         -3.0590    -1.7260    -0.0150 nc         1 YVQ      -0.672000
     16 NAW         -0.4130    -1.1090    -0.3920 na         1 YVQ       0.057700
     17 CAJ         -1.3050    -0.1080    -0.1350 cd         1 YVQ      -0.192600
     18 CAQ         -2.6150    -0.4350     0.0500 cc         1 YVQ       0.472800
     19 CAP         -3.6210     0.5800     0.3270 cc         1 YVQ      -0.334800
     20 CAC         -4.9670     0.3590     0.5450 cd         1 YVQ      -0.083300
     21 CAH         -3.4860     1.9810     0.4330 cc         1 YVQ       0.318200
     22 NAN         -4.6410     2.5590     0.6920 nd         1 YVQ      -0.520800
     23 NAK         -5.5160     1.5630     0.7550 na         1 YVQ      -0.003600
     24 HAF          3.5580    -1.6470     0.9560 ha         1 YVQ       0.140000
     25 HAB          5.7540    -0.8350     1.7160 ha         1 YVQ       0.132000
     26 HAA          6.5230     1.4400     1.1710 ha         1 YVQ       0.130000
     27 HAE          5.1000     2.9820    -0.1430 ha         1 YVQ       0.133000
     28 HAI          0.6450     1.5930    -1.8220 h4         1 YVQ       0.166000
     29 HAD          2.2440    -2.8330    -0.9750 h4         1 YVQ       0.182000
     30 HAG         -2.5580    -3.6970    -0.2850 h4         1 YVQ       0.045100
     31 HAJ         -0.9200     0.8990    -0.0810 h4         1 YVQ       0.171000
     32 HAC         -5.5470    -0.5470     0.5650 h4         1 YVQ       0.190000
     33 HAH         -2.5950     2.5820     0.3300 h4         1 YVQ       0.034100
     34 HAK         -6.4860     1.7600     0.9410 hn         1 YVQ       0.323700
     35 H12          2.5890     3.0740    -1.4170 hn         1 YVQ       0.302700
@<TRIPOS>BOND
     1     1     2 ar  
     2     1     6 ar  
     3     1     9 1   
     4     2     3 ar  
     5     2    24 1   
     6     3     4 ar  
     7     3    25 1   
     8     4     5 ar  
     9     4    26 1   
    10     5     6 ar  
    11     5    27 1   
    12     6     7 1   
    13     7     8 1   
    14     7    35 1   
    15     8     9 2   
    16     8    28 1   
    17     9    10 1   
    18    10    11 2   
    19    10    16 1   
    20    11    12 1   
    21    11    29 1   
    22    12    13 2   
    23    13    14 1   
    24    13    16 1   
    25    14    15 2   
    26    14    30 1   
    27    15    18 1   
    28    16    17 1   
    29    17    18 2   
    30    17    31 1   
    31    18    19 1   
    32    19    20 2   
    33    19    21 1   
    34    20    23 1   
    35    20    32 1   
    36    21    22 2   
    37    21    33 1   
    38    22    23 1   
    39    23    34 1   
@<TRIPOS>SUBSTRUCTURE
     1 YVQ         1 TEMP              0 ****  ****    0 ROOT
