@<TRIPOS>MOLECULE
YVQ
   35    39     1     0     0
SMALL
No Charge or Current Charge


@<TRIPOS>ATOM
      1 CAV          3.1810     0.2130     0.0170 ca         1 YVQ      -0.080800
      2 CAF          4.0980    -0.7070     0.5540 ca         1 YVQ      -0.058000
      3 CAB          5.4290    -0.2760     0.7480 ca         1 YVQ      -0.137000
      4 CAA          5.8110     1.0470     0.4220 ca         1 YVQ      -0.089000
      5 CAE          4.8620     1.9550    -0.0910 ca         1 YVQ      -0.126000
      6 CAU          3.5500     1.4990    -0.2750 ca         1 YVQ      -0.050200
      7 NAO          2.4530     2.2060    -0.7320 na         1 YVQ      -0.215700
      8 CAI          1.3130     1.3760    -0.7540 cc         1 YVQ      -0.149100
      9 CAR          1.7630     0.1420    -0.2910 cd         1 YVQ      -0.084200
     10 CAS          0.8720    -1.0020    -0.2840 cd         1 YVQ      -0.084100
     11 CAD          1.2600    -2.3250    -0.2350 cc         1 YVQ      -0.031400
     12 NAM          0.1740    -3.1700    -0.3250 nc         1 YVQ      -0.262600
     13 CAT         -0.8800    -2.3720    -0.3980 cd         1 YVQ      -0.160000
     14 CAG         -2.2590    -2.7180    -0.3970 cd         1 YVQ       0.408900
     15 NAL         -3.1920    -1.7720    -0.3050 nc         1 YVQ      -0.672000
     16 NAW         -0.4980    -1.0700    -0.4570 na         1 YVQ       0.159100
     17 CAJ         -1.3940    -0.0920    -0.0340 cd         1 YVQ      -0.160000
     18 CAQ         -2.7360    -0.4760    -0.0740 cc         1 YVQ       0.407500
     19 CAP         -3.7290     0.5350     0.1820 cc         1 YVQ      -0.269500
     20 CAC         -5.0790     0.3320     0.2030 cd         1 YVQ      -0.116000
     21 CAH         -3.5170     1.8970     0.4510 cc         1 YVQ       0.252900
     22 NAN         -4.6310     2.5740     0.6430 nd         1 YVQ      -0.520800
     23 NAK         -5.6170     1.5950     0.4890 na         1 YVQ      -0.003200
     24 HAF          3.8080    -1.7120     0.8390 ha         1 YVQ       0.122000
     25 HAB          6.1640    -0.9640     1.1590 ha         1 YVQ       0.114000
     26 HAA          6.8390     1.3680     0.5790 ha         1 YVQ       0.112000
     27 HAE          5.1410     2.9790    -0.3300 ha         1 YVQ       0.115000
     28 HAI          0.3580     1.7110    -1.1430 h4         1 YVQ       0.216000
     29 HAD          2.2560    -2.7450    -0.1790 h4         1 YVQ       0.232000
     30 HAG         -2.6230    -3.7380    -0.4280 h4         1 YVQ       0.045100
     31 HAJ         -1.0250     0.8810     0.2410 h4         1 YVQ       0.153000
     32 HAC         -5.6810    -0.5580     0.0480 h4         1 YVQ       0.172000
     33 HAH         -2.5760     2.4270     0.5140 h4         1 YVQ       0.034100
     34 HAK         -6.6080     1.8170     0.5810 hn         1 YVQ       0.374000
     35 H12          2.4750     3.1780    -1.0290 hn         1 YVQ       0.353000
@<TRIPOS>BOND
     1     1     2 ar  
     2     1     6 ar  
     3     1     9 1   
     4     2     3 ar  
     5     2    24 1   
     6     3     4 ar  
     7     3    25 1   
     8     4     5 ar  
     9     4    26 1   
    10     5     6 ar  
    11     5    27 1   
    12     6     7 1   
    13     7     8 1   
    14     7    35 1   
    15     8     9 2   
    16     8    28 1   
    17     9    10 1   
    18    10    11 2   
    19    10    16 1   
    20    11    12 1   
    21    11    29 1   
    22    12    13 2   
    23    13    14 1   
    24    13    16 1   
    25    14    15 2   
    26    14    30 1   
    27    15    18 1   
    28    16    17 1   
    29    17    18 2   
    30    17    31 1   
    31    18    19 1   
    32    19    20 2   
    33    19    21 1   
    34    20    23 1   
    35    20    32 1   
    36    21    22 2   
    37    21    33 1   
    38    22    23 1   
    39    23    34 1   
@<TRIPOS>SUBSTRUCTURE
     1 YVQ         1 TEMP              0 ****  ****    0 ROOT
