@<TRIPOS>MOLECULE
YVR
   15    15     1     0     0
SMALL
No Charge or Current Charge


@<TRIPOS>ATOM
      1 O6           2.1850     0.4720    -0.5190 o          1 YVR      -0.493000
      2 C5           1.2080     0.0950     0.1110 c          1 YVR       0.655100
      3 O1           0.0710     0.8600     0.1310 os         1 YVR      -0.432100
      4 C4           0.7560    -1.3670     0.2150 c5         1 YVR      -0.197400
      5 C3          -0.6790    -1.3150    -0.3530 c5         1 YVR      -0.112400
      6 C2          -1.1000     0.0320     0.2850 c5         1 YVR       0.169300
      7 C7          -2.3150     0.7130    -0.3710 c3         1 YVR      -0.094100
      8 H1           1.4340    -2.0430    -0.3170 hc         1 YVR       0.082700
      9 H2           0.6900    -1.6310     1.2760 hc         1 YVR       0.082700
     10 H3          -0.6900    -1.2730    -1.4490 hc         1 YVR       0.064700
     11 H4          -1.3040    -2.1580    -0.0340 hc         1 YVR       0.064700
     12 H5          -1.2970    -0.0940     1.3600 h1         1 YVR       0.058700
     13 H6          -2.1370     0.9030    -1.4360 hc         1 YVR       0.050700
     14 H7          -3.2080     0.0840    -0.2850 hc         1 YVR       0.050700
     15 H8          -2.5340     1.6720     0.1120 hc         1 YVR       0.050700
@<TRIPOS>BOND
     1     1     2 2   
     2     2     3 1   
     3     2     4 1   
     4     3     6 1   
     5     4     5 1   
     6     4     8 1   
     7     4     9 1   
     8     5     6 1   
     9     5    10 1   
    10     5    11 1   
    11     6     7 1   
    12     6    12 1   
    13     7    13 1   
    14     7    14 1   
    15     7    15 1   
@<TRIPOS>SUBSTRUCTURE
     1 YVR         1 TEMP              0 ****  ****    0 ROOT
