@<TRIPOS>MOLECULE
YVR
   15    15     1     0     0
SMALL
bcc


@<TRIPOS>ATOM
      1 O6           2.2470     0.5670    -0.0420 o          1 YVR      -0.568500
      2 C5           1.1480     0.0870     0.0450 c          1 YVR       0.730600
      3 O1           0.0610     0.8490     0.1540 os         1 YVR      -0.408900
      4 C4           0.7560    -1.3690     0.0650 c5         1 YVR      -0.197400
      5 C3          -0.7340    -1.3260    -0.2330 c5         1 YVR      -0.112400
      6 C2          -1.1360     0.0490     0.2970 c5         1 YVR       0.146100
      7 C7          -2.2770     0.7110    -0.4340 c3         1 YVR      -0.094100
      8 H1           1.3490    -1.9450    -0.6430 hc         1 YVR       0.082700
      9 H2           0.9630    -1.7620     1.0650 hc         1 YVR       0.082700
     10 H3          -0.9130    -1.3850    -1.3090 hc         1 YVR       0.064700
     11 H4          -1.2980    -2.1230     0.2470 hc         1 YVR       0.064700
     12 H5          -1.3580    -0.0080     1.3670 h1         1 YVR       0.058700
     13 H6          -2.0550     0.8150    -1.4970 hc         1 YVR       0.050700
     14 H7          -3.1710     0.0950    -0.3340 hc         1 YVR       0.050700
     15 H8          -2.5020     1.6950    -0.0230 hc         1 YVR       0.050700
@<TRIPOS>BOND
     1     1     2 2   
     2     2     3 1   
     3     2     4 1   
     4     3     6 1   
     5     4     5 1   
     6     4     8 1   
     7     4     9 1   
     8     5     6 1   
     9     5    10 1   
    10     5    11 1   
    11     6     7 1   
    12     6    12 1   
    13     7    13 1   
    14     7    14 1   
    15     7    15 1   
@<TRIPOS>SUBSTRUCTURE
     1 YVR         1 TEMP              0 ****  ****    0 ROOT
