@<TRIPOS>MOLECULE
YVU
   57    60     1     0     0
SMALL
No Charge or Current Charge


@<TRIPOS>ATOM
      1 N1          14.9570    18.9050    37.3540 nb         1 YVU      -0.301000
      2 C7          17.1350    12.8550    39.6110 c3         1 YVU       0.028600
      3 C8          17.3090    10.1990    40.6830 c3         1 YVU       0.023600
      4 N2          15.9750    17.9400    39.3260 nb         1 YVU      -0.216000
      5 C9          17.6200    10.1580    42.1940 c3         1 YVU       0.115000
      6 O1          17.3960     7.2880    42.2420 o          1 YVU      -0.627100
      7 C1          15.1360    18.7930    38.6910 ca         1 YVU       0.183900
      8 C5          18.1200    15.7600    40.1620 c5         1 YVU       0.317300
      9 C6          18.1270    13.4540    40.6490 c5         1 YVU       0.169300
     10 N3          17.4400    16.2500    36.5420 nc         1 YVU      -0.551100
     11 C4          18.0520    15.6740    37.5930 cd         1 YVU       0.406700
     12 C3          16.5940    17.1590    37.1660 ca         1 YVU      -0.102600
     13 O3          16.9370    16.5150    42.2810 oh         1 YVU      -0.693000
     14 C2          16.6990    17.1230    38.5330 ca         1 YVU       0.144500
     15 N4          17.6250    16.1590    38.8440 na         1 YVU      -0.290300
     16 C10         18.4600     7.8160    42.5130 c          1 YVU       0.644100
     17 N6          19.5920     7.1240    42.8390 ns         1 YVU      -0.523900
     18 C11         19.6900     5.6650    42.8720 c3         1 YVU       0.166300
     19 C12         20.2830     5.1190    41.5800 ca         1 YVU      -0.102300
     20 C17         21.6690     4.8890    41.4740 ca         1 YVU      -0.097500
     21 C16         22.2140     4.3870    40.2790 ca         1 YVU      -0.108500
     22 C15         21.3780     4.1150    39.1830 ca         1 YVU      -0.107000
     23 C14         19.9950     4.3450    39.2830 ca         1 YVU      -0.108500
     24 C13         19.4490     4.8460    40.4770 ca         1 YVU      -0.097500
     25 N5          18.6520     9.1700    42.5270 ns         1 YVU      -0.518900
     26 O           18.8800    14.5310    40.0470 os         1 YVU      -0.453000
     27 C18         17.4680    14.1390    41.8860 c5         1 YVU       0.112300
     28 O2          18.3910    14.3910    42.9520 oh         1 YVU      -0.708000
     29 C19         17.0170    15.4930    41.2630 c5         1 YVU       0.083300
     30 C           15.6900    18.0800    36.5930 ca         1 YVU       0.449900
     31 N           15.5180    18.1950    35.2490 nv         1 YVU      -1.061900
     32 H1          17.7090    12.4510    38.7680 h1         1 YVU       0.080700
     33 H2          16.4820    13.6440    39.2180 h1         1 YVU       0.080700
     34 H3          16.9080     9.2260    40.3710 h1         1 YVU       0.077700
     35 H4          18.2290    10.3840    40.1130 h1         1 YVU       0.077700
     36 H5          17.9630    11.1450    42.5280 h1         1 YVU       0.070700
     37 H6          16.7030     9.9180    42.7480 h1         1 YVU       0.070700
     38 H7          14.5470    19.4570    39.3210 h5         1 YVU       0.047100
     39 H8          18.7900    16.5660    40.4870 h2         1 YVU       0.123700
     40 H9          18.8260    12.6660    40.9580 h1         1 YVU       0.089700
     41 H10         18.8090    14.9010    37.5230 h5         1 YVU       0.063800
     42 H11         16.4330    17.2740    41.8990 ho         1 YVU       0.517000
     43 H12         20.4230     7.6630    43.0410 hn         1 YVU       0.306500
     44 H13         18.6970     5.2270    43.0410 h1         1 YVU       0.059200
     45 H14         20.3250     5.3760    43.7200 h1         1 YVU       0.059200
     46 H15         22.3240     5.0990    42.3170 ha         1 YVU       0.107500
     47 H16         23.2850     4.2110    40.2030 ha         1 YVU       0.111500
     48 H17         21.8000     3.7270    38.2590 ha         1 YVU       0.112000
     49 H18         19.3470     4.1360    38.4350 ha         1 YVU       0.111500
     50 H19         18.3780     5.0240    40.5460 ha         1 YVU       0.107500
     51 H20         19.5750     9.5030    42.7760 hn         1 YVU       0.299500
     52 H21         16.6050    13.5660    42.2560 h1         1 YVU       0.074700
     53 H22         18.1670    15.3230    43.2090 ho         1 YVU       0.525000
     54 H23         16.0360    15.3640    40.7840 h1         1 YVU       0.052700
     55 H24         15.0970    19.0490    34.8940 hn         1 YVU       0.505500
     56 H25         16.2110    17.7460    34.6550 hn         1 YVU       0.505500
     57 S           16.0540    11.5070    40.2960 ss         1 YVU      -0.413000
@<TRIPOS>BOND
     1     1     7 ar  
     2     1    30 ar  
     3     2     9 1   
     4     2    32 1   
     5     2    33 1   
     6     2    57 1   
     7     3     5 1   
     8     3    34 1   
     9     3    35 1   
    10     3    57 1   
    11     4     7 ar  
    12     4    14 ar  
    13     5    25 1   
    14     5    36 1   
    15     5    37 1   
    16     6    16 2   
    17     7    38 1   
    18     8    15 1   
    19     8    26 1   
    20     8    29 1   
    21     8    39 1   
    22     9    26 1   
    23     9    27 1   
    24     9    40 1   
    25    10    11 2   
    26    10    12 1   
    27    11    15 1   
    28    11    41 1   
    29    12    14 ar  
    30    12    30 ar  
    31    13    29 1   
    32    13    42 1   
    33    14    15 1   
    34    16    17 1   
    35    16    25 1   
    36    17    18 1   
    37    17    43 1   
    38    18    19 1   
    39    18    44 1   
    40    18    45 1   
    41    19    20 ar  
    42    19    24 ar  
    43    20    21 ar  
    44    20    46 1   
    45    21    22 ar  
    46    21    47 1   
    47    22    23 ar  
    48    22    48 1   
    49    23    24 ar  
    50    23    49 1   
    51    24    50 1   
    52    25    51 1   
    53    27    28 1   
    54    27    29 1   
    55    27    52 1   
    56    28    53 1   
    57    29    54 1   
    58    30    31 1   
    59    31    55 1   
    60    31    56 1   
@<TRIPOS>SUBSTRUCTURE
     1 YVU         1 TEMP              0 ****  ****    0 ROOT
