@<TRIPOS>MOLECULE
YVU
   57    60     1     0     0
SMALL
abcg2


@<TRIPOS>ATOM
      1 N1          17.7300    19.9330    37.7370 nb         1 YVU      -0.301000
      2 C7          16.7360    12.1230    39.4330 c3         1 YVU       0.028600
      3 C8          17.7810     9.8270    40.7090 c3         1 YVU       0.023600
      4 N2          17.7240    18.3350    39.5120 nb         1 YVU      -0.216000
      5 C9          17.9510     9.9080    42.2240 c3         1 YVU       0.115000
      6 O1          18.3160     7.1870    42.7290 o          1 YVU      -0.627100
      7 C1          17.9420    19.5280    38.9860 ca         1 YVU       0.183900
      8 C5          16.9870    15.4140    40.0080 c5         1 YVU       0.317300
      9 C6          17.2000    13.1390    40.4680 c5         1 YVU       0.169300
     10 N3          16.4720    16.6450    36.6470 nc         1 YVU      -0.551100
     11 C4          16.4430    15.7310    37.5690 cd         1 YVU       0.406700
     12 C3          16.9630    17.7570    37.2830 ca         1 YVU      -0.102600
     13 O3          15.0140    15.9200    41.2630 oh         1 YVU      -0.693000
     14 C2          17.2330    17.4840    38.6140 ca         1 YVU       0.144500
     15 N4          16.8890    16.1730    38.7870 na         1 YVU      -0.290300
     16 C10         19.2810     7.9380    42.8050 c          1 YVU       0.644100
     17 N6          20.5340     7.4790    43.0710 ns         1 YVU      -0.523900
     18 C11         20.8110     6.0670    43.1110 c3         1 YVU       0.166300
     19 C12         20.7090     5.3660    41.7750 ca         1 YVU      -0.102300
     20 C17         21.1480     5.9790    40.6050 ca         1 YVU      -0.097500
     21 C16         21.0870     5.3120    39.3890 ca         1 YVU      -0.108500
     22 C15         20.5860     4.0180    39.3260 ca         1 YVU      -0.107000
     23 C14         20.1450     3.3980    40.4880 ca         1 YVU      -0.108500
     24 C13         20.2050     4.0710    41.7020 ca         1 YVU      -0.097500
     25 N5          19.1740     9.2900    42.6740 ns         1 YVU      -0.518900
     26 O           17.7610    14.2700    39.7880 os         1 YVU      -0.453000
     27 C18         16.0810    13.6900    41.3440 c5         1 YVU       0.112300
     28 O2          16.6280    14.0750    42.5790 oh         1 YVU      -0.708000
     29 C19         15.6430    14.9110    40.5320 c5         1 YVU       0.083300
     30 C           17.2340    19.0660    36.8460 ca         1 YVU       0.449900
     31 N           17.0030    19.4740    35.5960 nv         1 YVU      -1.061900
     32 H1          17.5330    11.9370    38.7110 h1         1 YVU       0.080700
     33 H2          15.8730    12.4930    38.8750 h1         1 YVU       0.080700
     34 H3          17.7920     8.7850    40.3890 h1         1 YVU       0.077700
     35 H4          18.5990    10.3350    40.1940 h1         1 YVU       0.077700
     36 H5          17.9600    10.9480    42.5480 h1         1 YVU       0.070700
     37 H6          17.1050     9.4330    42.7170 h1         1 YVU       0.070700
     38 H7          18.3460    20.2790    39.6570 h5         1 YVU       0.047100
     39 H8          17.4530    16.0810    40.7420 h2         1 YVU       0.123700
     40 H9          17.9860    12.6950    41.0840 h1         1 YVU       0.089700
     41 H10         16.1130    14.7130    37.4220 h5         1 YVU       0.063800
     42 H11         14.0720    15.7280    41.3190 ho         1 YVU       0.517000
     43 H12         21.3160     8.1110    43.0410 hn         1 YVU       0.306500
     44 H13         20.1540     5.5740    43.8300 h1         1 YVU       0.059200
     45 H14         21.8250     5.9550    43.4990 h1         1 YVU       0.059200
     46 H15         21.5380     6.9900    40.6380 ha         1 YVU       0.107500
     47 H16         21.4300     5.8040    38.4880 ha         1 YVU       0.111500
     48 H17         20.5350     3.4980    38.3780 ha         1 YVU       0.112000
     49 H18         19.7470     2.3930    40.4500 ha         1 YVU       0.111500
     50 H19         19.8500     3.5840    42.6030 ha         1 YVU       0.107500
     51 H20         20.0160     9.8380    42.5810 hn         1 YVU       0.299500
     52 H21         15.2710    12.9620    41.4680 h1         1 YVU       0.074700
     53 H22         16.0290    14.7120    42.9850 ho         1 YVU       0.525000
     54 H23         15.0230    14.5730    39.6910 h1         1 YVU       0.052700
     55 H24         17.2930    20.3920    35.3070 hn         1 YVU       0.505500
     56 H25         16.7150    18.8230    34.8870 hn         1 YVU       0.505500
     57 S           16.2060    10.5440    40.1470 ss         1 YVU      -0.413000
@<TRIPOS>BOND
     1     1     7 ar  
     2     1    30 ar  
     3     2     9 1   
     4     2    32 1   
     5     2    33 1   
     6     2    57 1   
     7     3     5 1   
     8     3    34 1   
     9     3    35 1   
    10     3    57 1   
    11     4     7 ar  
    12     4    14 ar  
    13     5    25 1   
    14     5    36 1   
    15     5    37 1   
    16     6    16 2   
    17     7    38 1   
    18     8    15 1   
    19     8    26 1   
    20     8    29 1   
    21     8    39 1   
    22     9    26 1   
    23     9    27 1   
    24     9    40 1   
    25    10    11 2   
    26    10    12 1   
    27    11    15 1   
    28    11    41 1   
    29    12    14 ar  
    30    12    30 ar  
    31    13    29 1   
    32    13    42 1   
    33    14    15 1   
    34    16    17 1   
    35    16    25 1   
    36    17    18 1   
    37    17    43 1   
    38    18    19 1   
    39    18    44 1   
    40    18    45 1   
    41    19    20 ar  
    42    19    24 ar  
    43    20    21 ar  
    44    20    46 1   
    45    21    22 ar  
    46    21    47 1   
    47    22    23 ar  
    48    22    48 1   
    49    23    24 ar  
    50    23    49 1   
    51    24    50 1   
    52    25    51 1   
    53    27    28 1   
    54    27    29 1   
    55    27    52 1   
    56    28    53 1   
    57    29    54 1   
    58    30    31 1   
    59    31    55 1   
    60    31    56 1   
@<TRIPOS>SUBSTRUCTURE
     1 YVU         1 TEMP              0 ****  ****    0 ROOT
