@<TRIPOS>MOLECULE
YVV
   90    92     1     0     0
SMALL
abcg2


@<TRIPOS>ATOM
      1 C10         13.0990   -17.6580    -0.6060 c          1 YVV       0.565000
      2 C13         12.7690   -22.6940    -0.3250 c3         1 YVV      -0.080400
      3 C15         12.5320   -25.1880    -0.0100 c          1 YVV       0.592100
      4 C20         12.4120   -27.5230     0.3810 c3         1 YVV       0.167600
      5 C21         13.3570   -28.6330     0.7720 c3         1 YVV      -0.097100
      6 C22         14.9390   -17.2240     0.7870 c5         1 YVV       0.101000
      7 C24         19.9160   -23.4530    -6.0160 ca         1 YVV      -0.105000
      8 C26         17.7420   -23.2990    -4.9960 ca         1 YVV      -0.106500
      9 C28         19.6980   -23.4200    -3.6200 ca         1 YVV      -0.106500
     10 C01         17.9940   -19.5680    -2.0740 c          1 YVV       0.586100
     11 C04         16.9800   -21.7690    -2.2650 c3         1 YVV       0.036700
     12 C05         17.4500   -23.2090    -2.5000 c3         1 YVV      -0.040100
     13 C07         13.7250   -21.5040    -0.2850 c3         1 YVV       0.103700
     14 C08         12.9630   -20.1890    -0.4500 c3         1 YVV      -0.073400
     15 C09         13.8640   -18.9650    -0.4680 c5         1 YVV      -0.158700
     16 C23         14.7150   -18.7360     0.7800 c5         1 YVV      -0.089400
     17 C25         18.5340   -23.3630    -6.1330 ca         1 YVV      -0.106000
     18 C27         18.3140   -23.3250    -3.7250 ca         1 YVV      -0.086300
     19 C29         20.4960   -23.4830    -4.7560 ca         1 YVV      -0.106000
     20 C30         19.2850   -18.7950    -1.8170 c3         1 YVV       0.035700
     21 C32         20.0940   -18.7000    -3.1260 c3         1 YVV      -0.040100
     22 C33         23.6970   -16.4620    -2.4410 ca         1 YVV      -0.098000
     23 C34         23.6120   -17.7910    -2.0460 ca         1 YVV      -0.103500
     24 C35         22.4540   -18.5160    -2.2870 ca         1 YVV      -0.101500
     25 C36         21.3630   -17.9260    -2.9220 ca         1 YVV      -0.084300
     26 C37         21.4600   -16.5960    -3.3170 ca         1 YVV      -0.101500
     27 C38         22.6190   -15.8680    -3.0830 ca         1 YVV      -0.103500
     28 C40         18.8440   -15.7000     0.3160 c3         1 YVV      -0.198400
     29 C42         19.8410   -14.8660     1.1030 c3         1 YVV       0.170600
     30 C44         20.8190   -13.6540    -0.6710 c3         1 YVV       0.241700
     31 C45         22.0870   -13.0140    -0.9990 c1         1 YVV      -0.146100
     32 C46         23.1230   -12.4770    -1.2840 c1         1 YVV      -0.223000
     33 N02         18.1160   -20.9040    -2.0620 ns         1 YVV      -0.478900
     34 N06         14.7600   -21.6250    -1.2960 ns         1 YVV      -0.495900
     35 N11         13.7430   -16.7370     0.1340 ns         1 YVV      -0.516900
     36 N31         18.9770   -17.4960    -1.2880 ns         1 YVV      -0.493900
     37 O03         16.9450   -18.9960    -2.3210 o          1 YVV      -0.618100
     38 O12         12.0980   -17.4690    -1.2760 o          1 YVV      -0.558000
     39 O16         13.1740   -26.3090     0.2920 os         1 YVV      -0.454100
     40 O17         11.3450   -25.1340    -0.2130 o          1 YVV      -0.491000
     41 O19         16.5480   -21.8000     0.0890 o          1 YVV      -0.606100
     42 O41         20.0990   -17.7100     0.6640 o          1 YVV      -0.590100
     43 O43         21.0180   -14.5500     0.3950 os         1 YVV      -0.430000
     44 H1          11.9980   -22.5290     0.4300 hc         1 YVV       0.061700
     45 H131        12.2610   -22.7180    -1.2920 hc         1 YVV       0.061700
     46 H201        11.6190   -27.4070     1.1230 h1         1 YVV       0.047700
     47 H202        11.9410   -27.7330    -0.5820 h1         1 YVV       0.047700
     48 H211        12.8010   -29.5680     0.8430 hc         1 YVV       0.046700
     49 H212        14.1460   -28.7690     0.0320 hc         1 YVV       0.046700
     50 H213        13.8180   -28.4450     1.7420 hc         1 YVV       0.046700
     51 H222        15.0360   -16.8140     1.7920 h1         1 YVV       0.041200
     52 H221        15.8380   -16.9510     0.2250 h1         1 YVV       0.041200
     53 H241        20.5350   -23.5040    -6.9020 ha         1 YVV       0.116000
     54 H261        16.6640   -23.2290    -5.0950 ha         1 YVV       0.109500
     55 H281        20.1600   -23.4520    -2.6390 ha         1 YVV       0.109500
     56 H041        16.4380   -21.4300    -3.1510 h1         1 YVV       0.077700
     57 H052        16.5630   -23.8390    -2.6000 hc         1 YVV       0.065700
     58 H051        17.9910   -23.5610    -1.6190 hc         1 YVV       0.065700
     59 H071        14.2330   -21.4990     0.6810 h1         1 YVV       0.082700
     60 H082        12.3740   -20.2230    -1.3720 hc         1 YVV       0.060700
     61 H081        12.2480   -20.1080     0.3740 hc         1 YVV       0.060700
     62 H091        14.5240   -19.0190    -1.3420 hc         1 YVV       0.094700
     63 H142        14.2190   -24.2150    -0.8420 hc         1 YVV       0.075700
     64 H141        14.0320   -23.9760     0.8760 hc         1 YVV       0.075700
     65 H232        14.1560   -19.0340     1.6720 hc         1 YVV       0.064200
     66 H231        15.6520   -19.2900     0.7750 hc         1 YVV       0.064200
     67 H251        18.0720   -23.3450    -7.1120 ha         1 YVV       0.116000
     68 H291        21.5710   -23.5560    -4.6540 ha         1 YVV       0.116000
     69 H301        19.8880   -19.3190    -1.0740 h1         1 YVV       0.098700
     70 H321        19.4790   -18.2270    -3.8960 hc         1 YVV       0.058700
     71 H322        20.3140   -19.7130    -3.4710 hc         1 YVV       0.058700
     72 H331        24.5990   -15.8940    -2.2520 ha         1 YVV       0.113000
     73 H341        24.4500   -18.2640    -1.5500 ha         1 YVV       0.113000
     74 H351        22.3940   -19.5530    -1.9760 ha         1 YVV       0.105500
     75 H371        20.6210   -16.1240    -3.8140 ha         1 YVV       0.105500
     76 H381        22.6780   -14.8340    -3.3970 ha         1 YVV       0.113000
     77 H402        18.4620   -15.1510    -0.5480 hc         1 YVV       0.060200
     78 H401        17.9780   -15.8720     0.9630 hc         1 YVV       0.060200
     79 H422        19.3390   -13.9510     1.4430 h1         1 YVV       0.058700
     80 H421        20.1600   -15.4130     1.9910 h1         1 YVV       0.058700
     81 H442        20.0890   -12.8760    -0.4090 h1         1 YVV       0.037200
     82 H441        20.4330   -14.1600    -1.5650 h1         1 YVV       0.037200
     83 H461        24.0440   -12.0010    -1.5330 ha         1 YVV       0.255000
     84 H021        18.9760   -21.3120    -1.7280 hn         1 YVV       0.330500
     85 H061        14.4710   -21.5320    -2.2590 hn         1 YVV       0.316500
     86 H111        13.4950   -15.7610     0.1070 hn         1 YVV       0.324500
     87 H311        18.3820   -16.9000    -1.8430 hn         1 YVV       0.323500
     88 C14         13.4740   -24.0140    -0.0650 c3         1 YVV      -0.137400
     89 C18         16.0700   -21.7230    -1.0330 c          1 YVV       0.581100
     90 C39         19.3840   -17.0590    -0.0800 c          1 YVV       0.616100
@<TRIPOS>BOND
     1     1    15 1   
     2     1    35 1   
     3     1    38 2   
     4     2    13 1   
     5     2    44 1   
     6     2    45 1   
     7     2    88 1   
     8     3    39 1   
     9     3    40 2   
    10     3    88 1   
    11     4     5 1   
    12     4    39 1   
    13     4    46 1   
    14     4    47 1   
    15     5    48 1   
    16     5    49 1   
    17     5    50 1   
    18     6    16 1   
    19     6    35 1   
    20     6    51 1   
    21     6    52 1   
    22     7    17 ar  
    23     7    19 ar  
    24     7    53 1   
    25     8    17 ar  
    26     8    18 ar  
    27     8    54 1   
    28     9    18 ar  
    29     9    19 ar  
    30     9    55 1   
    31    10    20 1   
    32    10    33 1   
    33    10    37 2   
    34    11    12 1   
    35    11    33 1   
    36    11    56 1   
    37    11    89 1   
    38    12    18 1   
    39    12    57 1   
    40    12    58 1   
    41    13    14 1   
    42    13    34 1   
    43    13    59 1   
    44    14    15 1   
    45    14    60 1   
    46    14    61 1   
    47    15    16 1   
    48    15    62 1   
    49    16    65 1   
    50    16    66 1   
    51    17    67 1   
    52    19    68 1   
    53    20    21 1   
    54    20    36 1   
    55    20    69 1   
    56    21    25 1   
    57    21    70 1   
    58    21    71 1   
    59    22    23 ar  
    60    22    27 ar  
    61    22    72 1   
    62    23    24 ar  
    63    23    73 1   
    64    24    25 ar  
    65    24    74 1   
    66    25    26 ar  
    67    26    27 ar  
    68    26    75 1   
    69    27    76 1   
    70    28    29 1   
    71    28    77 1   
    72    28    78 1   
    73    28    90 1   
    74    29    43 1   
    75    29    79 1   
    76    29    80 1   
    77    30    31 1   
    78    30    43 1   
    79    30    81 1   
    80    30    82 1   
    81    31    32 3   
    82    32    83 1   
    83    33    84 1   
    84    34    85 1   
    85    34    89 1   
    86    35    86 1   
    87    36    87 1   
    88    36    90 1   
    89    41    89 2   
    90    42    90 2   
    91    63    88 1   
    92    64    88 1   
@<TRIPOS>SUBSTRUCTURE
     1 YVV         1 TEMP              0 ****  ****    0 ROOT
