@<TRIPOS>MOLECULE
YVV
   90    92     1     0     0
SMALL
No Charge or Current Charge


@<TRIPOS>ATOM
      1 C10         11.1100   -19.0260     0.4840 c          1 YVV       0.565000
      2 C13         13.2410   -23.6680    -0.2400 c3         1 YVV      -0.080400
      3 C15         14.1600   -26.0330    -0.3990 c          1 YVV       0.592100
      4 C20         13.6950   -28.0340     0.8550 c3         1 YVV       0.167600
      5 C21         13.6480   -28.4640     2.3300 c3         1 YVV      -0.097100
      6 C22         12.7360   -17.9860     1.8800 c5         1 YVV       0.101000
      7 C24         19.1120   -20.6730    -6.5530 ca         1 YVV      -0.105000
      8 C26         16.9950   -20.6360    -5.3510 ca         1 YVV      -0.106500
      9 C28         18.8740   -21.9020    -4.4660 ca         1 YVV      -0.106500
     10 C01         18.0680   -18.8040    -2.3730 c          1 YVV       0.586100
     11 C04         16.4110   -20.7160    -2.1610 c3         1 YVV       0.036700
     12 C05         16.6920   -21.8790    -3.1500 c3         1 YVV      -0.040100
     13 C07         13.5200   -22.1630    -0.0100 c3         1 YVV       0.103700
     14 C08         12.2160   -21.3330     0.0860 c3         1 YVV      -0.073400
     15 C09         12.4200   -19.8130     0.3490 c5         1 YVV      -0.158700
     16 C23         13.1640   -19.4630     1.6690 c5         1 YVV      -0.089400
     17 C25         17.7800   -20.2390    -6.4470 ca         1 YVV      -0.106000
     18 C27         17.5380   -21.4660    -4.3510 ca         1 YVV      -0.086300
     19 C29         19.6580   -21.5060    -5.5630 ca         1 YVV      -0.106000
     20 C30         19.5070   -18.3580    -1.9780 c3         1 YVV       0.035700
     21 C32         20.5570   -19.1880    -2.7570 c3         1 YVV      -0.040100
     22 C33         24.6630   -17.9370    -2.0930 ca         1 YVV      -0.098000
     23 C34         23.9360   -18.5440    -1.0560 ca         1 YVV      -0.103500
     24 C35         22.6050   -18.9420    -1.2690 ca         1 YVV      -0.101500
     25 C36         21.9930   -18.7350    -2.5200 ca         1 YVV      -0.084300
     26 C37         22.7260   -18.1210    -3.5550 ca         1 YVV      -0.101500
     27 C38         24.0570   -17.7210    -3.3410 ca         1 YVV      -0.103500
     28 C40         19.4550   -14.4930    -1.9160 c3         1 YVV      -0.198400
     29 C42         20.1850   -13.6920    -0.8180 c3         1 YVV       0.170600
     30 C44         22.4520   -14.4160    -1.3910 c3         1 YVV       0.241700
     31 C45         23.6930   -14.7900    -0.7020 c1         1 YVV      -0.146100
     32 C46         24.7180   -15.0660    -0.1190 c1         1 YVV      -0.223000
     33 N02         17.6640   -20.0030    -1.8200 ns         1 YVV      -0.478900
     34 N06         14.3950   -21.6300    -1.0600 ns         1 YVV      -0.495900
     35 N11         11.3590   -18.0340     1.3930 ns         1 YVV      -0.516900
     36 N31         19.7090   -16.9110    -2.2140 ns         1 YVV      -0.493900
     37 O03         17.3400   -18.1560    -3.1170 o          1 YVV      -0.618100
     38 O12          9.9900   -19.3030     0.0870 o          1 YVV      -0.558000
     39 O16         14.0530   -26.6420     0.8240 os         1 YVV      -0.454100
     40 O17         13.9470   -26.5860    -1.4700 o          1 YVV      -0.491000
     41 O19         16.2570   -21.2890     0.2150 o          1 YVV      -0.606100
     42 O41         18.3740   -16.1530    -0.5340 o          1 YVV      -0.590100
     43 O43         21.3940   -14.3670    -0.4170 os         1 YVV      -0.430000
     44 H1          12.5790   -24.0290     0.5570 hc         1 YVV       0.061700
     45 H131        12.6950   -23.7950    -1.1840 hc         1 YVV       0.061700
     46 H201        12.7120   -28.1970     0.3950 h1         1 YVV       0.047700
     47 H202        14.4370   -28.6420     0.3190 h1         1 YVV       0.047700
     48 H211        13.3770   -29.5240     2.4070 hc         1 YVV       0.046700
     49 H212        14.6270   -28.3240     2.8040 hc         1 YVV       0.046700
     50 H213        12.9040   -27.8770     2.8800 hc         1 YVV       0.046700
     51 H222        12.8060   -17.6830     2.9330 h1         1 YVV       0.041200
     52 H221        13.3470   -17.2990     1.2780 h1         1 YVV       0.041200
     53 H241        19.7190   -20.3640    -7.4020 ha         1 YVV       0.116000
     54 H261        15.9670   -20.2900    -5.2730 ha         1 YVV       0.109500
     55 H281        19.3090   -22.5420    -3.7020 ha         1 YVV       0.109500
     56 H041        15.7200   -20.0100    -2.6390 h1         1 YVV       0.077700
     57 H052        15.7380   -22.2960    -3.4980 hc         1 YVV       0.065700
     58 H051        17.1900   -22.6900    -2.6040 hc         1 YVV       0.065700
     59 H071        14.0340   -22.0730     0.9580 h1         1 YVV       0.082700
     60 H082        11.6480   -21.4650    -0.8430 hc         1 YVV       0.060700
     61 H081        11.5930   -21.7560     0.8840 hc         1 YVV       0.060700
     62 H091        12.9710   -19.3630    -0.4840 hc         1 YVV       0.094700
     63 H142        15.1460   -24.2620    -1.1150 hc         1 YVV       0.075700
     64 H141        15.0460   -24.3960     0.6800 hc         1 YVV       0.075700
     65 H232        12.8170   -20.0890     2.5000 hc         1 YVV       0.064200
     66 H231        14.2510   -19.5810     1.5990 hc         1 YVV       0.064200
     67 H251        17.3560   -19.5930    -7.2130 ha         1 YVV       0.116000
     68 H291        20.6890   -21.8420    -5.6430 ha         1 YVV       0.116000
     69 H301        19.6280   -18.5520    -0.9040 h1         1 YVV       0.098700
     70 H321        20.3180   -19.1360    -3.8270 hc         1 YVV       0.058700
     71 H322        20.4570   -20.2440    -2.4810 hc         1 YVV       0.058700
     72 H331        25.6930   -17.6290    -1.9270 ha         1 YVV       0.113000
     73 H341        24.4030   -18.7070    -0.0870 ha         1 YVV       0.113000
     74 H351        22.0510   -19.4160    -0.4620 ha         1 YVV       0.105500
     75 H371        22.2690   -17.9550    -4.5280 ha         1 YVV       0.105500
     76 H381        24.6180   -17.2470    -4.1430 ha         1 YVV       0.113000
     77 H402        20.0500   -14.5010    -2.8360 hc         1 YVV       0.060200
     78 H401        18.5090   -13.9810    -2.1240 hc         1 YVV       0.060200
     79 H422        20.4050   -12.6790    -1.1820 h1         1 YVV       0.058700
     80 H421        19.5160   -13.5890     0.0470 h1         1 YVV       0.058700
     81 H442        22.5970   -13.4350    -1.8650 h1         1 YVV       0.037200
     82 H441        22.2380   -15.1550    -2.1740 h1         1 YVV       0.037200
     83 H461        25.6200   -15.3240     0.4020 ha         1 YVV       0.255000
     84 H021        18.3030   -20.4500    -1.1720 hn         1 YVV       0.330500
     85 H061        14.0170   -21.5430    -1.9960 hn         1 YVV       0.316500
     86 H111        10.5960   -17.4410     1.6960 hn         1 YVV       0.324500
     87 H311        20.3090   -16.6220    -2.9770 hn         1 YVV       0.323500
     88 C14         14.5160   -24.5520    -0.2670 c3         1 YVV      -0.137400
     89 C18         15.7040   -21.2320    -0.8770 c          1 YVV       0.581100
     90 C39         19.1310   -15.9140    -1.4640 c          1 YVV       0.616100
@<TRIPOS>BOND
     1     1    15 1   
     2     1    35 1   
     3     1    38 2   
     4     2    13 1   
     5     2    44 1   
     6     2    45 1   
     7     2    88 1   
     8     3    39 1   
     9     3    40 2   
    10     3    88 1   
    11     4     5 1   
    12     4    39 1   
    13     4    46 1   
    14     4    47 1   
    15     5    48 1   
    16     5    49 1   
    17     5    50 1   
    18     6    16 1   
    19     6    35 1   
    20     6    51 1   
    21     6    52 1   
    22     7    17 ar  
    23     7    19 ar  
    24     7    53 1   
    25     8    17 ar  
    26     8    18 ar  
    27     8    54 1   
    28     9    18 ar  
    29     9    19 ar  
    30     9    55 1   
    31    10    20 1   
    32    10    33 1   
    33    10    37 2   
    34    11    12 1   
    35    11    33 1   
    36    11    56 1   
    37    11    89 1   
    38    12    18 1   
    39    12    57 1   
    40    12    58 1   
    41    13    14 1   
    42    13    34 1   
    43    13    59 1   
    44    14    15 1   
    45    14    60 1   
    46    14    61 1   
    47    15    16 1   
    48    15    62 1   
    49    16    65 1   
    50    16    66 1   
    51    17    67 1   
    52    19    68 1   
    53    20    21 1   
    54    20    36 1   
    55    20    69 1   
    56    21    25 1   
    57    21    70 1   
    58    21    71 1   
    59    22    23 ar  
    60    22    27 ar  
    61    22    72 1   
    62    23    24 ar  
    63    23    73 1   
    64    24    25 ar  
    65    24    74 1   
    66    25    26 ar  
    67    26    27 ar  
    68    26    75 1   
    69    27    76 1   
    70    28    29 1   
    71    28    77 1   
    72    28    78 1   
    73    28    90 1   
    74    29    43 1   
    75    29    79 1   
    76    29    80 1   
    77    30    31 1   
    78    30    43 1   
    79    30    81 1   
    80    30    82 1   
    81    31    32 3   
    82    32    83 1   
    83    33    84 1   
    84    34    85 1   
    85    34    89 1   
    86    35    86 1   
    87    36    87 1   
    88    36    90 1   
    89    41    89 2   
    90    42    90 2   
    91    63    88 1   
    92    64    88 1   
@<TRIPOS>SUBSTRUCTURE
     1 YVV         1 TEMP              0 ****  ****    0 ROOT
