@<TRIPOS>MOLECULE
YVW
   29    31     1     0     0
SMALL
abcg2


@<TRIPOS>ATOM
      1 N3          -9.3770    -1.4250    -8.6010 na         1 YVW      -0.223700
      2 C4         -11.2120    -3.2200   -10.3470 c6         1 YVW       0.078000
      3 C5          -9.9840    -1.1190    -9.7910 cc         1 YVW      -0.068300
      4 C6         -10.2870     0.2130    -9.8090 cd         1 YVW      -0.211200
      5 C7          -9.8450     0.7650    -8.5680 ca         1 YVW      -0.100800
      6 C8          -9.8700     2.0440    -8.0000 ca         1 YVW      -0.056000
      7 C10         -8.7700     1.1540    -6.0300 ca         1 YVW      -0.087000
      8 C          -10.4750    -4.5480   -12.3270 c          1 YVW       0.530000
      9 N2         -11.3400    -4.2720   -11.3380 ns         1 YVW      -0.516900
     10 C2          -9.2880    -3.6090   -12.4670 c6         1 YVW       0.064800
     11 N           -9.0140    -2.7370   -11.3440 n7         1 YVW      -0.833400
     12 C3         -10.2460    -2.1460   -10.8420 c6         1 YVW       0.208700
     13 C9          -9.3340     2.2270    -6.7400 ca         1 YVW      -0.141000
     14 C11         -8.7310    -0.1190    -6.5650 ca         1 YVW      -0.131000
     15 C12         -9.2740    -0.2990    -7.8350 ca         1 YVW      -0.041200
     16 H13         -9.0570    -2.3380    -8.3200 hn         1 YVW       0.345000
     17 H8         -10.8600    -3.6410    -9.3990 h1         1 YVW       0.047700
     18 H5         -10.7730     0.7340   -10.6200 ha         1 YVW       0.206000
     19 H4         -10.3030     2.8770    -8.5400 ha         1 YVW       0.115000
     20 H2          -8.3570     1.3290    -5.0450 ha         1 YVW       0.111000
     21 H77        -12.1190    -4.9070   -11.2350 hn         1 YVW       0.319500
     22 H9          -8.4050    -4.2120   -12.6820 h1         1 YVW       0.087200
     23 H10         -9.4700    -3.0030   -13.3620 h1         1 YVW       0.087200
     24 H33         -8.5620    -3.2710   -10.6090 hn         1 YVW       0.409000
     25 H6         -10.7150    -1.6210   -11.6800 h1         1 YVW       0.089700
     26 H3          -9.3480     3.2110    -6.2890 ha         1 YVW       0.112000
     27 H1          -8.2950    -0.9450    -6.0160 ha         1 YVW       0.113000
     28 H7         -12.1960    -2.7870   -10.1630 h1         1 YVW       0.047700
     29 O          -10.6370    -5.4780   -13.1060 o          1 YVW      -0.558000
@<TRIPOS>BOND
     1     1     3 1   
     2     1    15 1   
     3     1    16 1   
     4     2     9 1   
     5     2    12 1   
     6     2    17 1   
     7     2    28 1   
     8     3     4 2   
     9     3    12 1   
    10     4     5 1   
    11     4    18 1   
    12     5     6 ar  
    13     5    15 ar  
    14     6    13 ar  
    15     6    19 1   
    16     7    13 ar  
    17     7    14 ar  
    18     7    20 1   
    19     8     9 1   
    20     8    10 1   
    21     8    29 2   
    22     9    21 1   
    23    10    11 1   
    24    10    22 1   
    25    10    23 1   
    26    11    12 1   
    27    11    24 1   
    28    12    25 1   
    29    13    26 1   
    30    14    15 ar  
    31    14    27 1   
@<TRIPOS>SUBSTRUCTURE
     1 YVW         1 TEMP              0 ****  ****    0 ROOT
