@<TRIPOS>MOLECULE
YVW
   29    31     1     0     0
SMALL
No Charge or Current Charge


@<TRIPOS>ATOM
      1 N3          -9.3280    -1.4250    -8.5560 na         1 YVW      -0.223700
      2 C4         -11.3020    -3.1800   -10.4650 c6         1 YVW       0.078000
      3 C5          -9.9600    -1.1450    -9.7890 cc         1 YVW      -0.068300
      4 C6         -10.2480     0.2120    -9.7330 cd         1 YVW      -0.211200
      5 C7          -9.8040     0.7700    -8.4820 ca         1 YVW      -0.100800
      6 C8          -9.8670     2.0690    -7.9630 ca         1 YVW      -0.056000
      7 C10         -8.7470     1.2060    -5.9540 ca         1 YVW      -0.087000
      8 C          -10.4270    -4.6800   -12.3180 c          1 YVW       0.530000
      9 N2         -11.3590    -4.3650   -11.3500 ns         1 YVW      -0.516900
     10 C2          -9.2870    -3.6420   -12.5730 c6         1 YVW       0.064800
     11 N           -9.0130    -2.7260   -11.4090 n7         1 YVW      -0.833400
     12 C3         -10.2690    -2.1010   -10.9210 c6         1 YVW       0.208700
     13 C9          -9.3260     2.2800    -6.6750 ca         1 YVW      -0.141000
     14 C11         -8.7030    -0.0910    -6.5140 ca         1 YVW      -0.131000
     15 C12         -9.2460    -0.2700    -7.7920 ca         1 YVW      -0.041200
     16 H13         -8.9830    -2.3330    -8.2670 hn         1 YVW       0.345000
     17 H8         -11.0380    -3.5350    -9.4580 h1         1 YVW       0.047700
     18 H5         -10.7410     0.7700   -10.5260 ha         1 YVW       0.206000
     19 H4         -10.3150     2.8820    -8.5290 ha         1 YVW       0.115000
     20 H2          -8.3340     1.3810    -4.9630 ha         1 YVW       0.111000
     21 H77        -12.0970    -5.0450   -11.2040 hn         1 YVW       0.319500
     22 H9          -8.3810    -4.2030   -12.8450 h1         1 YVW       0.087200
     23 H10         -9.5980    -3.0520   -13.4470 h1         1 YVW       0.087200
     24 H33         -8.6190    -3.2790   -10.6380 hn         1 YVW       0.409000
     25 H6         -10.7210    -1.5370   -11.7520 h1         1 YVW       0.089700
     26 H3          -9.3550     3.2740    -6.2350 ha         1 YVW       0.112000
     27 H1          -8.2600    -0.9210    -5.9680 ha         1 YVW       0.113000
     28 H7         -12.3030    -2.7290   -10.4020 h1         1 YVW       0.047700
     29 O          -10.5110    -5.7280   -12.9400 o          1 YVW      -0.558000
@<TRIPOS>BOND
     1     1     3 1   
     2     1    15 1   
     3     1    16 1   
     4     2     9 1   
     5     2    12 1   
     6     2    17 1   
     7     2    28 1   
     8     3     4 2   
     9     3    12 1   
    10     4     5 1   
    11     4    18 1   
    12     5     6 ar  
    13     5    15 ar  
    14     6    13 ar  
    15     6    19 1   
    16     7    13 ar  
    17     7    14 ar  
    18     7    20 1   
    19     8     9 1   
    20     8    10 1   
    21     8    29 2   
    22     9    21 1   
    23    10    11 1   
    24    10    22 1   
    25    10    23 1   
    26    11    12 1   
    27    11    24 1   
    28    12    25 1   
    29    13    26 1   
    30    14    15 ar  
    31    14    27 1   
@<TRIPOS>SUBSTRUCTURE
     1 YVW         1 TEMP              0 ****  ****    0 ROOT
