@<TRIPOS>MOLECULE
YVY
   81    82     1     0     0
SMALL
abcg2


@<TRIPOS>ATOM
      1 C10         26.5440    -4.8350    27.3450 c3         1 YVY       0.250700
      2 C01         26.0310    -8.8360    28.3400 c          1 YVY       0.619100
      3 C05         25.0000    -7.8170    28.7850 c3         1 YVY      -0.157400
      4 C08         25.5640    -6.4140    28.8000 c3         1 YVY       0.164600
      5 C11         27.9360    -4.9180    27.7980 c1         1 YVY      -0.192100
      6 C12         29.0790    -4.9980    28.1590 c1         1 YVY      -0.210000
      7 O03         27.1740    -8.8190    28.7710 o          1 YVY      -0.599100
      8 O09         25.8600    -6.0510    27.4690 os         1 YVY      -0.450000
      9 N02         25.5810    -9.7620    27.4730 ns         1 YVY      -0.489900
     10 C04         26.3730   -10.8520    26.9790 c3         1 YVY       0.036700
     11 C06         25.6730   -12.1820    27.2510 c          1 YVY       0.595100
     12 O14         24.4680   -12.2660    27.4190 o          1 YVY      -0.607100
     13 C07         26.6510   -10.7220    25.4680 c3         1 YVY      -0.042100
     14 C40         27.4630    -9.4990    25.1540 ca         1 YVY      -0.084300
     15 C39         26.8540    -8.3060    24.7780 ca         1 YVY      -0.094500
     16 C41         28.8520    -9.5320    25.2690 ca         1 YVY      -0.094500
     17 C38         27.6130    -7.1710    24.5190 ca         1 YVY      -0.103500
     18 C42         29.6140    -8.4020    25.0130 ca         1 YVY      -0.103500
     19 C37         28.9950    -7.2150    24.6380 ca         1 YVY      -0.103000
     20 N13         26.4910   -13.2460    27.2190 ns         1 YVY      -0.481900
     21 C15         26.0210   -14.5890    27.3970 c3         1 YVY       0.034700
     22 C16         25.7920   -14.8890    28.8800 c          1 YVY       0.575100
     23 O19         26.2480   -14.1870    29.7660 o          1 YVY      -0.577100
     24 C17         27.0240   -15.5790    26.7820 c3         1 YVY      -0.038100
     25 C24         27.1830   -15.3390    25.3060 ca         1 YVY      -0.088300
     26 C23         26.2240   -15.8110    24.4130 ca         1 YVY      -0.105500
     27 C25         28.2550   -14.6040    24.8070 ca         1 YVY      -0.105500
     28 C22         26.3290   -15.5510    23.0550 ca         1 YVY      -0.104500
     29 C26         28.3640   -14.3410    23.4470 ca         1 YVY      -0.104500
     30 C21         27.4000   -14.8110    22.5670 ca         1 YVY      -0.103000
     31 C20         24.8460   -16.4770    30.4720 c3         1 YVY       0.015700
     32 C28         26.0970   -17.0940    31.0900 c3         1 YVY      -0.086400
     33 C27         24.1940   -15.4060    31.3480 c          1 YVY       0.580100
     34 C29         23.0900   -14.6010    30.7140 c3         1 YVY      -0.197100
     35 C31         26.6650   -18.2270    30.2440 c3         1 YVY      -0.088400
     36 C32         27.9920   -18.7550    30.7630 c3         1 YVY       0.109000
     37 C34         28.8660   -19.7880    32.8640 c          1 YVY       0.640100
     38 N18         25.0500   -15.9810    29.1280 ns         1 YVY      -0.507900
     39 N33         27.8520   -19.3160    32.0900 ns         1 YVY      -0.518900
     40 N35         30.1290   -19.5050    32.4410 nt         1 YVY      -0.601000
     41 O36         28.6510   -20.4470    33.8770 o          1 YVY      -0.641100
     42 H102        26.5290    -4.5650    26.2860 h1         1 YVY       0.055200
     43 H101        26.0370    -4.0270    27.8890 h1         1 YVY       0.055200
     44 H051        24.0990    -7.8540    28.1690 hc         1 YVY       0.067700
     45 H052        24.6960    -8.0780    29.8020 hc         1 YVY       0.067700
     46 H082        26.4590    -6.3790    29.4310 h1         1 YVY       0.040700
     47 H081        24.8310    -5.7220    29.2350 h1         1 YVY       0.040700
     48 H121        30.0930    -5.0680    28.4810 ha         1 YVY       0.254000
     49 H021        24.6230    -9.7120    27.1630 hn         1 YVY       0.325500
     50 H041        27.3250   -10.8360    27.5130 h1         1 YVY       0.099700
     51 H071        27.1820   -11.6140    25.1310 hc         1 YVY       0.055700
     52 H072        25.6990   -10.6980    24.9310 hc         1 YVY       0.055700
     53 H391        25.7760    -8.2640    24.6780 ha         1 YVY       0.105500
     54 H411        29.3410   -10.4560    25.5570 ha         1 YVY       0.105500
     55 H381        27.1230    -6.2520    24.2260 ha         1 YVY       0.109500
     56 H421        30.6920    -8.4470    25.1030 ha         1 YVY       0.109500
     57 H371        29.5870    -6.3320    24.4370 ha         1 YVY       0.110000
     58 H131        27.4880   -13.0930    27.2040 hn         1 YVY       0.326500
     59 H151        25.0680   -14.6980    26.8720 h1         1 YVY       0.085700
     60 H171        27.9860   -15.4860    27.2940 hc         1 YVY       0.058200
     61 H172        26.6700   -16.5950    26.9590 hc         1 YVY       0.058200
     62 H231        25.3850   -16.3900    24.7850 ha         1 YVY       0.108000
     63 H251        29.0160   -14.2370    25.4870 ha         1 YVY       0.108000
     64 H221        25.5750   -15.9270    22.3750 ha         1 YVY       0.116500
     65 H261        29.2050   -13.7680    23.0770 ha         1 YVY       0.116500
     66 H211        27.4820   -14.6060    21.5080 ha         1 YVY       0.117000
     67 H201        24.0820   -17.2590    30.3780 h1         1 YVY       0.059700
     68 H281        26.8590   -16.3240    31.2320 hc         1 YVY       0.075700
     69 H282        25.8410   -17.4650    32.0830 hc         1 YVY       0.075700
     70 H1          22.4440   -14.1810    31.4830 hc         1 YVY       0.066033
     71 H2          23.5080   -13.7740    30.1380 hc         1 YVY       0.066033
     72 H3          22.4950   -15.2020    30.0270 hc         1 YVY       0.066033
     73 H311        25.9410   -19.0460    30.1720 hc         1 YVY       0.040700
     74 H312        26.8390   -17.8850    29.2210 hc         1 YVY       0.040700
     75 H322        28.3900   -19.4940    30.0580 h1         1 YVY       0.036200
     76 H321        28.7000   -17.9210    30.7850 h1         1 YVY       0.036200
     77 H181        24.6770   -16.5140    28.3590 hn         1 YVY       0.317500
     78 H331        26.9480   -19.6980    32.3240 hn         1 YVY       0.320500
     79 H352        30.8680   -19.6630    33.1060 hn         1 YVY       0.304000
     80 H351        30.3080   -18.7690    31.7780 hn         1 YVY       0.304000
     81 O30         24.5040   -15.2720    32.5070 o          1 YVY      -0.503100
@<TRIPOS>BOND
     1     1     5 1   
     2     1     8 1   
     3     1    42 1   
     4     1    43 1   
     5     2     3 1   
     6     2     7 2   
     7     2     9 1   
     8     3     4 1   
     9     3    44 1   
    10     3    45 1   
    11     4     8 1   
    12     4    46 1   
    13     4    47 1   
    14     5     6 3   
    15     6    48 1   
    16     9    10 1   
    17     9    49 1   
    18    10    11 1   
    19    10    13 1   
    20    10    50 1   
    21    11    12 2   
    22    11    20 1   
    23    13    14 1   
    24    13    51 1   
    25    13    52 1   
    26    14    15 ar  
    27    14    16 ar  
    28    15    17 ar  
    29    15    53 1   
    30    16    18 ar  
    31    16    54 1   
    32    17    19 ar  
    33    17    55 1   
    34    18    19 ar  
    35    18    56 1   
    36    19    57 1   
    37    20    21 1   
    38    20    58 1   
    39    21    22 1   
    40    21    24 1   
    41    21    59 1   
    42    22    23 2   
    43    22    38 1   
    44    24    25 1   
    45    24    60 1   
    46    24    61 1   
    47    25    26 ar  
    48    25    27 ar  
    49    26    28 ar  
    50    26    62 1   
    51    27    29 ar  
    52    27    63 1   
    53    28    30 ar  
    54    28    64 1   
    55    29    30 ar  
    56    29    65 1   
    57    30    66 1   
    58    31    32 1   
    59    31    33 1   
    60    31    38 1   
    61    31    67 1   
    62    32    35 1   
    63    32    68 1   
    64    32    69 1   
    65    33    34 1   
    66    33    81 2   
    67    34    70 1   
    68    34    71 1   
    69    34    72 1   
    70    35    36 1   
    71    35    73 1   
    72    35    74 1   
    73    36    39 1   
    74    36    75 1   
    75    36    76 1   
    76    37    39 1   
    77    37    40 1   
    78    37    41 2   
    79    38    77 1   
    80    39    78 1   
    81    40    79 1   
    82    40    80 1   
@<TRIPOS>SUBSTRUCTURE
     1 YVY         1 TEMP              0 ****  ****    0 ROOT
