@<TRIPOS>MOLECULE
YVY
   81    82     1     0     0
SMALL
No Charge or Current Charge


@<TRIPOS>ATOM
      1 C10         26.3440    -5.5030    24.5520 c3         1 YVY       0.250700
      2 C01         25.5640    -8.2140    27.8320 c          1 YVY       0.619100
      3 C05         24.5230    -7.2060    27.3480 c3         1 YVY      -0.157400
      4 C08         25.1750    -6.0140    26.6340 c3         1 YVY       0.164600
      5 C11         27.4800    -4.7980    25.1720 c1         1 YVY      -0.192100
      6 C12         28.3950    -4.1950    25.6900 c1         1 YVY      -0.210000
      7 O03         26.3000    -7.9910    28.7830 o          1 YVY      -0.599100
      8 O09         25.8230    -6.5080    25.4480 os         1 YVY      -0.450000
      9 N02         25.5470    -9.4260    27.1780 ns         1 YVY      -0.489900
     10 C04         26.3920   -10.5970    27.5170 c3         1 YVY       0.036700
     11 C06         25.5340   -11.8930    27.5330 c          1 YVY       0.595100
     12 O14         24.4060   -11.9540    27.0570 o          1 YVY      -0.607100
     13 C07         27.5780   -10.7380    26.5280 c3         1 YVY      -0.042100
     14 C40         28.4980    -9.5240    26.4790 ca         1 YVY      -0.084300
     15 C39         28.6050    -8.7580    25.3010 ca         1 YVY      -0.094500
     16 C41         29.2730    -9.1740    27.6030 ca         1 YVY      -0.094500
     17 C38         29.4760    -7.6560    25.2490 ca         1 YVY      -0.103500
     18 C42         30.1390    -8.0680    27.5520 ca         1 YVY      -0.103500
     19 C37         30.2410    -7.3090    26.3740 ca         1 YVY      -0.103000
     20 N13         26.1310   -12.9820    28.1370 ns         1 YVY      -0.481900
     21 C15         25.5770   -14.3560    28.1500 c3         1 YVY       0.034700
     22 C16         25.7220   -14.9940    29.5590 c          1 YVY       0.575100
     23 O19         26.4170   -14.5120    30.4430 o          1 YVY      -0.577100
     24 C17         26.2570   -15.2340    27.0650 c3         1 YVY      -0.038100
     25 C24         26.2940   -14.5800    25.6870 ca         1 YVY      -0.088300
     26 C23         25.1120   -14.4460    24.9330 ca         1 YVY      -0.105500
     27 C25         27.5070   -14.0920    25.1620 ca         1 YVY      -0.105500
     28 C22         25.1410   -13.8260    23.6720 ca         1 YVY      -0.104500
     29 C26         27.5360   -13.4720    23.9010 ca         1 YVY      -0.104500
     30 C21         26.3530   -13.3370    23.1560 ca         1 YVY      -0.103000
     31 C20         25.0410   -17.0100    30.9620 c3         1 YVY       0.015700
     32 C28         26.4240   -17.6980    31.1420 c3         1 YVY      -0.086400
     33 C27         24.5620   -16.2250    32.2240 c          1 YVY       0.580100
     34 C29         23.1470   -15.6460    32.1650 c3         1 YVY      -0.197100
     35 C31         26.8690   -18.5440    29.9210 c3         1 YVY      -0.088400
     36 C32         28.2320   -19.2420    30.1090 c3         1 YVY       0.109000
     37 C34         29.2640   -20.9580    31.6510 c          1 YVY       0.640100
     38 N18         24.9960   -16.1560    29.7500 ns         1 YVY      -0.507900
     39 N33         28.1980   -20.2470    31.1750 ns         1 YVY      -0.518900
     40 N35         30.4480   -20.7000    31.0740 nt         1 YVY      -0.601000
     41 O36         29.1520   -21.7760    32.5400 o          1 YVY      -0.641100
     42 H102        26.6940    -5.9740    23.6240 h1         1 YVY       0.055200
     43 H101        25.5660    -4.7760    24.2840 h1         1 YVY       0.055200
     44 H051        23.8170    -7.6820    26.6570 hc         1 YVY       0.067700
     45 H052        23.9820    -6.8210    28.2190 hc         1 YVY       0.067700
     46 H082        25.8930    -5.5280    27.3090 h1         1 YVY       0.040700
     47 H081        24.3970    -5.2830    26.3750 h1         1 YVY       0.040700
     48 H121        29.2070    -3.6730    26.1550 ha         1 YVY       0.254000
     49 H021        24.8720    -9.5270    26.4300 hn         1 YVY       0.325500
     50 H041        26.7890   -10.4720    28.5330 h1         1 YVY       0.099700
     51 H071        28.1710   -11.6190    26.8020 hc         1 YVY       0.055700
     52 H072        27.1750   -10.9500    25.5290 hc         1 YVY       0.055700
     53 H391        28.0150    -9.0150    24.4250 ha         1 YVY       0.105500
     54 H411        29.2060    -9.7590    28.5170 ha         1 YVY       0.105500
     55 H381        29.5540    -7.0690    24.3370 ha         1 YVY       0.109500
     56 H421        30.7310    -7.8010    28.4240 ha         1 YVY       0.109500
     57 H371        30.9120    -6.4530    26.3340 ha         1 YVY       0.110000
     58 H131        27.0440   -12.8330    28.5540 hn         1 YVY       0.326500
     59 H151        24.5010   -14.3080    27.9360 h1         1 YVY       0.085700
     60 H171        27.2770   -15.4680    27.3940 hc         1 YVY       0.058200
     61 H172        25.7360   -16.1970    27.0000 hc         1 YVY       0.058200
     62 H231        24.1680   -14.8160    25.3280 ha         1 YVY       0.108000
     63 H251        28.4280   -14.1860    25.7320 ha         1 YVY       0.108000
     64 H221        24.2230   -13.7210    23.0970 ha         1 YVY       0.116500
     65 H261        28.4750   -13.0930    23.5030 ha         1 YVY       0.116500
     66 H211        26.3750   -12.8550    22.1810 ha         1 YVY       0.117000
     67 H201        24.2980   -17.8050    30.8130 h1         1 YVY       0.059700
     68 H281        27.1880   -16.9400    31.3510 hc         1 YVY       0.075700
     69 H282        26.3780   -18.3430    32.0290 hc         1 YVY       0.075700
     70 H1          22.8280   -15.2140    33.1200 hc         1 YVY       0.066033
     71 H2          23.1030   -14.9020    31.3630 hc         1 YVY       0.066033
     72 H3          22.4550   -16.4170    31.8080 hc         1 YVY       0.066033
     73 H311        26.1050   -19.2990    29.6970 hc         1 YVY       0.040700
     74 H312        26.9410   -17.8970    29.0380 hc         1 YVY       0.040700
     75 H322        28.5140   -19.7380    29.1700 h1         1 YVY       0.036200
     76 H321        28.9940   -18.4880    30.3460 h1         1 YVY       0.036200
     77 H181        24.4350   -16.4710    28.9650 hn         1 YVY       0.317500
     78 H331        27.3090   -20.4590    31.6090 hn         1 YVY       0.320500
     79 H352        31.2670   -21.1980    31.3870 hn         1 YVY       0.304000
     80 H351        30.5110   -20.0180    30.3360 hn         1 YVY       0.304000
     81 O30         25.2540   -16.0880    33.2280 o          1 YVY      -0.503100
@<TRIPOS>BOND
     1     1     5 1   
     2     1     8 1   
     3     1    42 1   
     4     1    43 1   
     5     2     3 1   
     6     2     7 2   
     7     2     9 1   
     8     3     4 1   
     9     3    44 1   
    10     3    45 1   
    11     4     8 1   
    12     4    46 1   
    13     4    47 1   
    14     5     6 3   
    15     6    48 1   
    16     9    10 1   
    17     9    49 1   
    18    10    11 1   
    19    10    13 1   
    20    10    50 1   
    21    11    12 2   
    22    11    20 1   
    23    13    14 1   
    24    13    51 1   
    25    13    52 1   
    26    14    15 ar  
    27    14    16 ar  
    28    15    17 ar  
    29    15    53 1   
    30    16    18 ar  
    31    16    54 1   
    32    17    19 ar  
    33    17    55 1   
    34    18    19 ar  
    35    18    56 1   
    36    19    57 1   
    37    20    21 1   
    38    20    58 1   
    39    21    22 1   
    40    21    24 1   
    41    21    59 1   
    42    22    23 2   
    43    22    38 1   
    44    24    25 1   
    45    24    60 1   
    46    24    61 1   
    47    25    26 ar  
    48    25    27 ar  
    49    26    28 ar  
    50    26    62 1   
    51    27    29 ar  
    52    27    63 1   
    53    28    30 ar  
    54    28    64 1   
    55    29    30 ar  
    56    29    65 1   
    57    30    66 1   
    58    31    32 1   
    59    31    33 1   
    60    31    38 1   
    61    31    67 1   
    62    32    35 1   
    63    32    68 1   
    64    32    69 1   
    65    33    34 1   
    66    33    81 2   
    67    34    70 1   
    68    34    71 1   
    69    34    72 1   
    70    35    36 1   
    71    35    73 1   
    72    35    74 1   
    73    36    39 1   
    74    36    75 1   
    75    36    76 1   
    76    37    39 1   
    77    37    40 1   
    78    37    41 2   
    79    38    77 1   
    80    39    78 1   
    81    40    79 1   
    82    40    80 1   
@<TRIPOS>SUBSTRUCTURE
     1 YVY         1 TEMP              0 ****  ****    0 ROOT
