@<TRIPOS>MOLECULE
YVZ
   72    74     1     0     0
SMALL
No Charge or Current Charge


@<TRIPOS>ATOM
      1 C1          17.7500    10.3820    21.7130 c3         1 YVZ      -0.088100
      2 C2          17.8600    11.8090    22.2930 c3         1 YVZ      -0.088400
      3 C3          17.8690    11.8770    23.8400 c3         1 YVZ       0.109700
      4 C4          16.5520    11.3850    24.4990 c3         1 YVZ      -0.073400
      5 C5          16.5040    11.4890    26.0520 c5         1 YVZ      -0.153700
      6 C6          17.5510    10.6270    26.8110 c5         1 YVZ      -0.094400
      7 C7          16.9250    10.5740    28.2310 c5         1 YVZ       0.099000
      8 N1          15.5070    10.4910    27.8910 ns         1 YVZ      -0.519900
      9 C8          15.1820    11.0170    26.6700 c          1 YVZ       0.562000
     10 O1          14.0840    10.8770    26.1540 o          1 YVZ      -0.554000
     11 N2          18.1680    13.2460    24.2680 ns         1 YVZ      -0.492900
     12 C9          19.2030    13.5990    25.1100 c          1 YVZ       0.595100
     13 O2          20.0770    12.8170    25.4670 o          1 YVZ      -0.614100
     14 C10         19.0720    15.1090    25.4810 c5         1 YVZ       0.057700
     15 C11         19.7510    16.0250    24.4460 cx         1 YVZ      -0.127700
     16 C12         20.7350    16.9150    25.1550 cx         1 YVZ      -0.123700
     17 C13         20.7120    16.5840    26.6540 c5         1 YVZ       0.133000
     18 N3          19.7680    15.4430    26.7610 n          1 YVZ      -0.393800
     19 C14         19.2110    15.0380    27.9940 c          1 YVZ       0.591100
     20 O3          18.1070    14.4990    28.0150 o          1 YVZ      -0.612100
     21 C15         20.0290    15.2290    29.3170 c3         1 YVZ       0.043700
     22 N4          19.0610    15.4140    30.4280 ns         1 YVZ      -0.470900
     23 C16         19.1540    16.3690    31.4260 c          1 YVZ       0.549100
     24 O4          20.0790    17.1740    31.4590 o          1 YVZ      -0.551100
     25 C17         18.0080    16.3370    32.4770 c3         1 YVZ       0.220000
     26 F1          18.1640    17.2860    33.4310 f          1 YVZ      -0.101333
     27 F2          16.8030    16.5450    31.8960 f          1 YVZ      -0.101333
     28 F3          17.9530    15.1390    33.1070 f          1 YVZ      -0.101333
     29 C18         21.0430    14.0550    29.6160 c3         1 YVZ      -0.046000
     30 C19         22.1480    13.9780    28.5290 c3         1 YVZ      -0.091433
     31 C20         21.7510    14.2840    30.9820 c3         1 YVZ      -0.091433
     32 C21         20.3070    12.6850    29.6680 c3         1 YVZ      -0.091433
     33 C22         19.4730    17.5170    24.5530 cx         1 YVZ      -0.076000
     34 C23         18.3360    18.0880    25.4190 c3         1 YVZ      -0.065600
     35 C24         19.6180    18.3610    23.2870 c3         1 YVZ      -0.065600
     36 H1          17.8560    10.4070    20.6220 hc         1 YVZ       0.036367
     37 H2          18.5380     9.7360    22.1180 hc         1 YVZ       0.036367
     38 H3          16.7770     9.9330    21.9440 hc         1 YVZ       0.036367
     39 H36         18.7890    12.2560    21.9190 hc         1 YVZ       0.044700
     40 H37         17.0380    12.4210    21.9020 hc         1 YVZ       0.044700
     41 H4          18.6780    11.2200    24.1880 h1         1 YVZ       0.077700
     42 H5          15.7190    11.9610    24.0750 hc         1 YVZ       0.060200
     43 H6          16.3770    10.3420    24.2100 hc         1 YVZ       0.060200
     44 H7          16.6350    12.5310    26.3630 hc         1 YVZ       0.089700
     45 H8          17.6280     9.6210    26.3820 hc         1 YVZ       0.063700
     46 H9          18.5560    11.0620    26.8150 hc         1 YVZ       0.063700
     47 H10         17.2790     9.7080    28.8060 h1         1 YVZ       0.041700
     48 H11         17.1470    11.4860    28.8030 h1         1 YVZ       0.041700
     49 H12         14.7860    10.0350    28.4380 hn         1 YVZ       0.324500
     50 H13         17.5200    13.9790    24.0050 hn         1 YVZ       0.318500
     51 H14         17.9990    15.3270    25.5650 h1         1 YVZ       0.084700
     52 H15         20.0170    15.6260    23.4690 hc         1 YVZ       0.103700
     53 H16         21.6860    17.1340    24.6740 hc         1 YVZ       0.101700
     54 H17         21.7100    16.2980    27.0070 h1         1 YVZ       0.062200
     55 H18         20.3840    17.4370    27.2630 h1         1 YVZ       0.062200
     56 H19         20.6020    16.1570    29.2140 h1         1 YVZ       0.087700
     57 H20         18.2430    14.8130    30.4450 hn         1 YVZ       0.348500
     58 H22         22.8610    13.1750    28.7540 hc         1 YVZ       0.042700
     59 H21         21.7300    13.7700    27.5380 hc         1 YVZ       0.042700
     60 H23         22.7150    14.9150    28.4780 hc         1 YVZ       0.042700
     61 H25         21.0440    14.2340    31.8180 hc         1 YVZ       0.042700
     62 H24         22.5180    13.5200    31.1600 hc         1 YVZ       0.042700
     63 H26         22.2430    15.2640    31.0090 hc         1 YVZ       0.042700
     64 H29         19.5120    12.6860    30.4230 hc         1 YVZ       0.042700
     65 H28         19.8570    12.4360    28.7000 hc         1 YVZ       0.042700
     66 H27         21.0050    11.8780    29.9220 hc         1 YVZ       0.042700
     67 H31         18.1720    17.5450    26.3550 hc         1 YVZ       0.042367
     68 H30         18.5430    19.1310    25.6880 hc         1 YVZ       0.042367
     69 H32         17.3870    18.0710    24.8690 hc         1 YVZ       0.042367
     70 H34         19.8540    19.4030    23.5330 hc         1 YVZ       0.042367
     71 H33         20.4210    17.9850    22.6410 hc         1 YVZ       0.042367
     72 H35         18.6920    18.3520    22.7000 hc         1 YVZ       0.042367
@<TRIPOS>BOND
     1     1     2 1   
     2     1    36 1   
     3     1    37 1   
     4     1    38 1   
     5     2     3 1   
     6     2    39 1   
     7     2    40 1   
     8     3     4 1   
     9     3    11 1   
    10     3    41 1   
    11     4     5 1   
    12     4    42 1   
    13     4    43 1   
    14     5     6 1   
    15     5     9 1   
    16     5    44 1   
    17     6     7 1   
    18     6    45 1   
    19     6    46 1   
    20     7     8 1   
    21     7    47 1   
    22     7    48 1   
    23     8     9 1   
    24     8    49 1   
    25     9    10 2   
    26    11    12 1   
    27    11    50 1   
    28    12    13 2   
    29    12    14 1   
    30    14    15 1   
    31    14    18 1   
    32    14    51 1   
    33    15    16 1   
    34    15    33 1   
    35    15    52 1   
    36    16    17 1   
    37    16    33 1   
    38    16    53 1   
    39    17    18 1   
    40    17    54 1   
    41    17    55 1   
    42    18    19 1   
    43    19    20 2   
    44    19    21 1   
    45    21    22 1   
    46    21    29 1   
    47    21    56 1   
    48    22    23 1   
    49    22    57 1   
    50    23    24 2   
    51    23    25 1   
    52    25    26 1   
    53    25    27 1   
    54    25    28 1   
    55    29    30 1   
    56    29    31 1   
    57    29    32 1   
    58    30    58 1   
    59    30    59 1   
    60    30    60 1   
    61    31    61 1   
    62    31    62 1   
    63    31    63 1   
    64    32    64 1   
    65    32    65 1   
    66    32    66 1   
    67    33    34 1   
    68    33    35 1   
    69    34    67 1   
    70    34    68 1   
    71    34    69 1   
    72    35    70 1   
    73    35    71 1   
    74    35    72 1   
@<TRIPOS>SUBSTRUCTURE
     1 YVZ         1 TEMP              0 ****  ****    0 ROOT
