@<TRIPOS>MOLECULE
YVZ
   72    74     1     0     0
SMALL
abcg2


@<TRIPOS>ATOM
      1 C1          16.6760    10.9250    21.9100 c3         1 YVZ      -0.088100
      2 C2          16.8260    12.2530    22.6400 c3         1 YVZ      -0.088400
      3 C3          17.5560    12.1470    23.9790 c3         1 YVZ       0.109700
      4 C4          16.7990    11.2920    24.9970 c3         1 YVZ      -0.073400
      5 C5          17.5620    11.0600    26.2910 c5         1 YVZ      -0.153700
      6 C6          18.8140    10.1910    26.1770 c5         1 YVZ      -0.094400
      7 C7          18.9400     9.5490    27.5590 c5         1 YVZ       0.099000
      8 N1          17.5630     9.5040    28.0030 ns         1 YVZ      -0.519900
      9 C8          16.7370    10.3380    27.3470 c          1 YVZ       0.562000
     10 O1          15.5490    10.4970    27.5720 o          1 YVZ      -0.554000
     11 N2          17.7760    13.4840    24.5060 ns         1 YVZ      -0.492900
     12 C9          18.9460    13.9610    24.9470 c          1 YVZ       0.595100
     13 O2          19.9970    13.3350    24.9550 o          1 YVZ      -0.614100
     14 C10         18.9170    15.4150    25.4220 c5         1 YVZ       0.057700
     15 C11         19.7840    16.2560    24.5130 cx         1 YVZ      -0.127700
     16 C12         20.9980    16.6810    25.2870 cx         1 YVZ      -0.123700
     17 C13         20.8880    16.1110    26.6770 c5         1 YVZ       0.133000
     18 N3          19.5520    15.5170    26.7290 n          1 YVZ      -0.393800
     19 C14         18.9010    15.0580    27.8090 c          1 YVZ       0.591100
     20 O3          17.7640    14.6110    27.7330 o          1 YVZ      -0.612100
     21 C15         19.6050    15.1110    29.1650 c3         1 YVZ       0.043700
     22 N4          18.7190    15.7680    30.1050 ns         1 YVZ      -0.470900
     23 C16         18.8200    17.0640    30.3990 c          1 YVZ       0.549100
     24 O4          19.6310    17.8480    29.9530 o          1 YVZ      -0.551100
     25 C17         17.8230    17.5600    31.4650 c3         1 YVZ       0.220000
     26 F1          17.6180    18.8620    31.3330 f          1 YVZ      -0.101333
     27 F2          16.6400    16.9460    31.3920 f          1 YVZ      -0.101333
     28 F3          18.3170    17.3410    32.6870 f          1 YVZ      -0.101333
     29 C18         20.0440    13.7110    29.6800 c3         1 YVZ      -0.046000
     30 C19         20.9300    13.0540    28.6220 c3         1 YVZ      -0.091433
     31 C20         20.8680    13.9230    30.9530 c3         1 YVZ      -0.091433
     32 C21         18.8730    12.7770    29.9950 c3         1 YVZ      -0.091433
     33 C22         19.9980    17.7080    24.8370 cx         1 YVZ      -0.076000
     34 C23         19.1230    18.4620    25.8110 c3         1 YVZ      -0.065600
     35 C24         20.4250    18.5600    23.6630 c3         1 YVZ      -0.065600
     36 H1          16.2790    11.0830    20.9070 hc         1 YVZ       0.036367
     37 H2          17.6390    10.4210    21.8070 hc         1 YVZ       0.036367
     38 H3          15.9970    10.2430    22.4220 hc         1 YVZ       0.036367
     39 H36         17.3850    12.9470    22.0080 hc         1 YVZ       0.044700
     40 H37         15.8410    12.7040    22.7980 hc         1 YVZ       0.044700
     41 H4          18.5410    11.7100    23.7990 h1         1 YVZ       0.077700
     42 H5          15.8400    11.7740    25.2140 hc         1 YVZ       0.060200
     43 H6          16.5660    10.3230    24.5490 hc         1 YVZ       0.060200
     44 H7          17.8260    12.0270    26.7380 hc         1 YVZ       0.089700
     45 H8          18.6540     9.4160    25.4220 hc         1 YVZ       0.063700
     46 H9          19.7030    10.7500    25.8970 hc         1 YVZ       0.063700
     47 H10         19.3750     8.5500    27.5220 h1         1 YVZ       0.041700
     48 H11         19.5530    10.1580    28.2310 h1         1 YVZ       0.041700
     49 H12         17.2720     8.9980    28.8250 hn         1 YVZ       0.324500
     50 H13         16.9600    14.0690    24.6050 hn         1 YVZ       0.318500
     51 H14         17.8920    15.7920    25.4770 h1         1 YVZ       0.084700
     52 H15         19.8560    15.9480    23.4760 hc         1 YVZ       0.103700
     53 H16         21.9830    16.6780    24.8350 hc         1 YVZ       0.101700
     54 H17         21.6640    15.3580    26.8320 h1         1 YVZ       0.062200
     55 H18         21.0010    16.8750    27.4500 h1         1 YVZ       0.062200
     56 H19         20.5110    15.7140    29.1110 h1         1 YVZ       0.087700
     57 H20         17.9420    15.2340    30.4660 hn         1 YVZ       0.348500
     58 H22         21.3020    12.0990    28.9960 hc         1 YVZ       0.042700
     59 H21         20.3910    12.8470    27.6950 hc         1 YVZ       0.042700
     60 H23         21.7980    13.6700    28.3810 hc         1 YVZ       0.042700
     61 H25         20.2770    14.3730    31.7520 hc         1 YVZ       0.042700
     62 H24         21.2410    12.9650    31.3190 hc         1 YVZ       0.042700
     63 H26         21.7300    14.5660    30.7650 hc         1 YVZ       0.042700
     64 H29         18.2120    13.1750    30.7670 hc         1 YVZ       0.042700
     65 H28         18.2740    12.5480    29.1160 hc         1 YVZ       0.042700
     66 H27         19.2670    11.8340    30.3780 hc         1 YVZ       0.042700
     67 H31         18.8440    17.8950    26.6980 hc         1 YVZ       0.042367
     68 H30         19.6380    19.3620    26.1510 hc         1 YVZ       0.042367
     69 H32         18.2010    18.7780    25.3210 hc         1 YVZ       0.042367
     70 H34         20.9870    19.4320    24.0000 hc         1 YVZ       0.042367
     71 H33         21.0570    18.0070    22.9660 hc         1 YVZ       0.042367
     72 H35         19.5550    18.9190    23.1080 hc         1 YVZ       0.042367
@<TRIPOS>BOND
     1     1     2 1   
     2     1    36 1   
     3     1    37 1   
     4     1    38 1   
     5     2     3 1   
     6     2    39 1   
     7     2    40 1   
     8     3     4 1   
     9     3    11 1   
    10     3    41 1   
    11     4     5 1   
    12     4    42 1   
    13     4    43 1   
    14     5     6 1   
    15     5     9 1   
    16     5    44 1   
    17     6     7 1   
    18     6    45 1   
    19     6    46 1   
    20     7     8 1   
    21     7    47 1   
    22     7    48 1   
    23     8     9 1   
    24     8    49 1   
    25     9    10 2   
    26    11    12 1   
    27    11    50 1   
    28    12    13 2   
    29    12    14 1   
    30    14    15 1   
    31    14    18 1   
    32    14    51 1   
    33    15    16 1   
    34    15    33 1   
    35    15    52 1   
    36    16    17 1   
    37    16    33 1   
    38    16    53 1   
    39    17    18 1   
    40    17    54 1   
    41    17    55 1   
    42    18    19 1   
    43    19    20 2   
    44    19    21 1   
    45    21    22 1   
    46    21    29 1   
    47    21    56 1   
    48    22    23 1   
    49    22    57 1   
    50    23    24 2   
    51    23    25 1   
    52    25    26 1   
    53    25    27 1   
    54    25    28 1   
    55    29    30 1   
    56    29    31 1   
    57    29    32 1   
    58    30    58 1   
    59    30    59 1   
    60    30    60 1   
    61    31    61 1   
    62    31    62 1   
    63    31    63 1   
    64    32    64 1   
    65    32    65 1   
    66    32    66 1   
    67    33    34 1   
    68    33    35 1   
    69    34    67 1   
    70    34    68 1   
    71    34    69 1   
    72    35    70 1   
    73    35    71 1   
    74    35    72 1   
@<TRIPOS>SUBSTRUCTURE
     1 YVZ         1 TEMP              0 ****  ****    0 ROOT
