@<TRIPOS>MOLECULE
YW1
   69    74     1     0     0
SMALL
No Charge or Current Charge


@<TRIPOS>ATOM
      1 N14        155.2980    76.2200    31.5710 na         1 YW1      -0.076600
      2 C13        157.7010    76.0200    30.7210 ca         1 YW1      -0.110000
      3 C18        160.1200    76.1510    29.8890 c          1 YW1       0.614700
      4 C15        153.2170    80.6680    34.4020 cc         1 YW1      -0.176000
      5 C21        158.7790    75.3710    27.8710 c6         1 YW1       0.059000
      6 C22        159.2840    75.8050    26.4660 c6         1 YW1       0.149300
      7 C24        161.4620    74.8710    26.8910 c6         1 YW1       0.149300
      8 C11        156.7110    77.9140    31.9110 cp         1 YW1      -0.073000
      9 C12        156.6280    76.6390    31.3720 ca         1 YW1      -0.009200
     10 C27        158.1590    75.7830    25.4050 c3         1 YW1      -0.087100
     11 C1         154.5760    77.1430    32.3710 ca         1 YW1       0.054800
     12 C2         155.4300    78.2350    32.5190 cp         1 YW1      -0.099000
     13 C3         155.0080    79.3980    33.1830 ca         1 YW1      -0.026000
     14 C4         153.6980    79.4550    33.7120 ca         1 YW1      -0.043000
     15 C5         152.8530    78.3210    33.5740 ca         1 YW1      -0.049000
     16 C6         153.2760    77.1330    32.9180 ca         1 YW1      -0.183600
     17 C7         152.3840    75.9200    32.8990 c          1 YW1       0.623700
     18 C8         158.9160    76.7450    30.5960 ca         1 YW1      -0.115600
     19 C9         159.0150    78.0400    31.1780 ca         1 YW1      -0.103000
     20 C10        157.9150    78.6350    31.8350 ca         1 YW1      -0.060000
     21 O16        152.8050    74.7790    32.9690 o          1 YW1      -0.598100
     22 N17        151.0510    76.1290    32.8970 nt         1 YW1      -0.606000
     23 N19        159.9030    75.2160    28.8480 n          1 YW1      -0.405800
     24 O20        161.2550    76.4150    30.2680 o          1 YW1      -0.587100
     25 O23        160.3210    74.9110    26.0100 os         1 YW1      -0.455000
     26 C25        161.0200    74.3890    28.3000 c6         1 YW1       0.059000
     27 C26        162.5050    73.9300    26.2450 c3         1 YW1      -0.087100
     28 C28        154.6300    75.4940    30.4670 c3         1 YW1       0.097600
     29 C29        153.9090    76.3660    29.4410 cx         1 YW1      -0.154700
     30 C30        154.6900    77.1690    28.4250 cx         1 YW1      -0.124400
     31 C31        153.8700    75.9800    27.9800 cx         1 YW1      -0.124400
     32 C32        153.9960    81.4150    35.2430 cd         1 YW1       0.202300
     33 O33        153.2340    82.3820    35.8430 os         1 YW1      -0.071700
     34 N34        151.8740    82.2310    35.4130 nd         1 YW1      -0.364300
     35 C35        151.9150    81.1990    34.5890 cc         1 YW1       0.287300
     36 C36        150.6830    80.7050    33.8800 c3         1 YW1      -0.132400
     37 C37        155.4310    81.2870    35.6850 c3         1 YW1      -0.140400
     38 H42        157.6030    75.0110    30.3280 ha         1 YW1       0.125000
     39 H46        158.2410    74.4160    27.7900 h1         1 YW1       0.065950
     40 H47        159.6940    76.8240    26.5230 h1         1 YW1       0.041700
     41 H48        161.8930    75.8810    26.9650 h1         1 YW1       0.041700
     42 H55        157.3450    76.4640    25.6810 hc         1 YW1       0.046533
     43 H54        158.5360    76.0970    24.4250 hc         1 YW1       0.046533
     44 H56        157.7320    74.7780    25.2970 hc         1 YW1       0.046533
     45 H38        155.6810    80.2470    33.2450 ha         1 YW1       0.121000
     46 H39        151.8770    78.3370    34.0470 ha         1 YW1       0.118000
     47 H40        159.9480    78.5960    31.1070 ha         1 YW1       0.128000
     48 H41        157.9980    79.6280    32.2700 ha         1 YW1       0.120000
     49 H43        150.4290    75.3350    32.9130 hn         1 YW1       0.316500
     50 H44        150.6860    77.0670    32.8360 hn         1 YW1       0.316500
     51 H50        160.6820    73.3450    28.2330 h1         1 YW1       0.065950
     52 H49        161.8840    74.4000    28.9800 h1         1 YW1       0.065950
     53 H53        163.4130    73.8720    26.8570 hc         1 YW1       0.046533
     54 H51        162.1100    72.9140    26.1320 hc         1 YW1       0.046533
     55 H52        162.7980    74.2920    25.2520 hc         1 YW1       0.046533
     56 H57        153.9240    74.7670    30.8750 h1         1 YW1       0.077700
     57 H58        155.3850    74.8980    29.9420 h1         1 YW1       0.077700
     58 H59        153.0180    76.8380    29.8490 hc         1 YW1       0.083700
     59 H60        155.7730    77.0700    28.4180 hc         1 YW1       0.073700
     60 H61        154.3230    78.1620    28.1760 hc         1 YW1       0.073700
     61 H62        152.9530    76.1750    27.4290 hc         1 YW1       0.073700
     62 H63        154.4060    75.0860    27.6680 hc         1 YW1       0.073700
     63 H65        149.9620    81.5180    33.7380 hc         1 YW1       0.054700
     64 H64        150.9280    80.3080    32.8890 hc         1 YW1       0.054700
     65 H66        150.1870    79.9190    34.4610 hc         1 YW1       0.054700
     66 H69        155.5800    81.7500    36.6670 hc         1 YW1       0.065700
     67 H68        155.7310    80.2360    35.7710 hc         1 YW1       0.065700
     68 H67        156.1070    81.7850    34.9800 hc         1 YW1       0.065700
     69 H45        158.0590    76.1260    28.2120 h1         1 YW1       0.065950
@<TRIPOS>BOND
     1     1     9 1   
     2     1    11 1   
     3     1    28 1   
     4     2     9 ar  
     5     2    18 ar  
     6     2    38 1   
     7     3    18 1   
     8     3    23 1   
     9     3    24 2   
    10     4    14 1   
    11     4    32 2   
    12     4    35 1   
    13     5     6 1   
    14     5    23 1   
    15     5    39 1   
    16     5    69 1   
    17     6    10 1   
    18     6    25 1   
    19     6    40 1   
    20     7    25 1   
    21     7    26 1   
    22     7    27 1   
    23     7    41 1   
    24     8     9 ar  
    25     8    12 1   
    26     8    20 ar  
    27    10    42 1   
    28    10    43 1   
    29    10    44 1   
    30    11    12 ar  
    31    11    16 ar  
    32    12    13 ar  
    33    13    14 ar  
    34    13    45 1   
    35    14    15 ar  
    36    15    16 ar  
    37    15    46 1   
    38    16    17 1   
    39    17    21 2   
    40    17    22 1   
    41    18    19 ar  
    42    19    20 ar  
    43    19    47 1   
    44    20    48 1   
    45    22    49 1   
    46    22    50 1   
    47    23    26 1   
    48    26    51 1   
    49    26    52 1   
    50    27    53 1   
    51    27    54 1   
    52    27    55 1   
    53    28    29 1   
    54    28    56 1   
    55    28    57 1   
    56    29    30 1   
    57    29    31 1   
    58    29    58 1   
    59    30    31 1   
    60    30    59 1   
    61    30    60 1   
    62    31    61 1   
    63    31    62 1   
    64    32    33 1   
    65    32    37 1   
    66    33    34 1   
    67    34    35 2   
    68    35    36 1   
    69    36    63 1   
    70    36    64 1   
    71    36    65 1   
    72    37    66 1   
    73    37    67 1   
    74    37    68 1   
@<TRIPOS>SUBSTRUCTURE
     1 YW1         1 TEMP              0 ****  ****    0 ROOT
