@<TRIPOS>MOLECULE
YW1
   69    74     1     0     0
SMALL
bcc


@<TRIPOS>ATOM
      1 N14        155.2560    76.1310    31.6900 na         1 YW1      -0.047300
      2 C13        157.5400    75.8540    30.7020 ca         1 YW1      -0.128000
      3 C18        159.9070    75.7440    29.9160 c          1 YW1       0.681700
      4 C15        153.4530    80.7550    34.3400 cc         1 YW1      -0.306600
      5 C21        158.6910    75.7940    27.7440 c6         1 YW1       0.059000
      6 C22        159.3490    76.5460    26.5910 c6         1 YW1       0.126100
      7 C24        161.3320    75.2890    26.8330 c6         1 YW1       0.126100
      8 C11        156.7830    77.7950    31.9600 cp         1 YW1      -0.073000
      9 C12        156.5470    76.5250    31.4090 ca         1 YW1      -0.009200
     10 C27        158.3260    76.9660    25.5570 c3         1 YW1      -0.087100
     11 C1         154.6350    77.1420    32.3920 ca         1 YW1       0.054800
     12 C2         155.5520    78.2020    32.5730 cp         1 YW1      -0.099000
     13 C3         155.1830    79.3780    33.2110 ca         1 YW1      -0.044000
     14 C4         153.8830    79.5260    33.6710 ca         1 YW1      -0.043000
     15 C5         152.9820    78.4670    33.4920 ca         1 YW1      -0.067000
     16 C6         153.3250    77.2720    32.8750 ca         1 YW1      -0.183600
     17 C7         152.3120    76.1690    32.9110 c          1 YW1       0.690700
     18 C8         158.7780    76.4670    30.5800 ca         1 YW1      -0.115600
     19 C9         159.0310    77.7190    31.1580 ca         1 YW1      -0.121000
     20 C10        158.0330    78.3950    31.8310 ca         1 YW1      -0.078000
     21 O16        152.5510    75.1040    33.4620 o          1 YW1      -0.598100
     22 N17        151.1340    76.4670    32.3490 nt         1 YW1      -0.673000
     23 N19        159.7060    75.2970    28.6570 n          1 YW1      -0.472800
     24 O20        160.9430    75.5500    30.5380 o          1 YW1      -0.587100
     25 O23        160.3200    75.7420    25.9540 os         1 YW1      -0.408600
     26 C25        160.7180    74.5040    27.9830 c6         1 YW1       0.059000
     27 C26        162.3030    74.4430    26.0380 c3         1 YW1      -0.087100
     28 C28        154.6230    74.9840    31.0630 c3         1 YW1       0.068300
     29 C29        153.7930    75.3620    29.8640 cx         1 YW1      -0.154700
     30 C30        154.4570    75.6140    28.5460 cx         1 YW1      -0.124400
     31 C31        153.6350    74.3770    28.7490 cx         1 YW1      -0.124400
     32 C32        154.0760    81.4400    35.3360 cd         1 YW1       0.312000
     33 O33        153.3580    82.5250    35.6360 os         1 YW1      -0.116100
     34 N34        152.2470    82.5830    34.8460 nd         1 YW1      -0.364300
     35 C35        152.2890    81.5370    34.0750 cc         1 YW1       0.352600
     36 C36        151.2260    81.2820    33.0660 c3         1 YW1      -0.132400
     37 C37        155.3220    81.2030    36.0980 c3         1 YW1      -0.140400
     38 H42        157.3670    74.8830    30.2570 ha         1 YW1       0.143000
     39 H46        158.1110    74.9500    27.3550 h1         1 YW1       0.065950
     40 H47        159.8330    77.4420    27.0120 h1         1 YW1       0.041700
     41 H48        161.8640    76.1560    27.2580 h1         1 YW1       0.041700
     42 H55        157.5810    77.6200    26.0100 hc         1 YW1       0.046533
     43 H54        158.7960    77.5120    24.7400 hc         1 YW1       0.046533
     44 H56        157.8080    76.1000    25.1410 hc         1 YW1       0.046533
     45 H38        155.9000    80.1830    33.3200 ha         1 YW1       0.139000
     46 H39        151.9810    78.5680    33.8920 ha         1 YW1       0.136000
     47 H40        160.0110    78.1660    31.0580 ha         1 YW1       0.146000
     48 H41        158.2240    79.3730    32.2550 ha         1 YW1       0.138000
     49 H43        150.3680    75.8130    32.3920 hn         1 YW1       0.316500
     50 H44        150.9820    77.3320    31.8590 hn         1 YW1       0.316500
     51 H50        160.2440    73.5950    27.5960 h1         1 YW1       0.065950
     52 H49        161.4870    74.2060    28.6920 h1         1 YW1       0.065950
     53 H53        163.1160    74.1000    26.6770 hc         1 YW1       0.046533
     54 H51        161.8080    73.5660    25.6190 hc         1 YW1       0.046533
     55 H52        162.7410    75.0150    25.2190 hc         1 YW1       0.046533
     56 H57        154.0250    74.4560    31.8030 h1         1 YW1       0.077700
     57 H58        155.4120    74.2920    30.7690 h1         1 YW1       0.077700
     58 H59        152.9240    75.9730    30.0830 hc         1 YW1       0.083700
     59 H60        155.5330    75.5010    28.4820 hc         1 YW1       0.073700
     60 H61        154.0580    76.4000    27.9180 hc         1 YW1       0.073700
     61 H62        152.6720    74.3120    28.2600 hc         1 YW1       0.073700
     62 H63        154.1570    73.4310    28.8280 hc         1 YW1       0.073700
     63 H65        150.5950    82.1590    32.9370 hc         1 YW1       0.054700
     64 H64        151.6640    81.0230    32.1020 hc         1 YW1       0.054700
     65 H66        150.5890    80.4500    33.3670 hc         1 YW1       0.054700
     66 H69        155.1680    81.3630    37.1650 hc         1 YW1       0.065700
     67 H68        155.6640    80.1810    35.9490 hc         1 YW1       0.065700
     68 H67        156.1200    81.8730    35.7720 hc         1 YW1       0.065700
     69 H45        158.0040    76.4630    28.2560 h1         1 YW1       0.065950
@<TRIPOS>BOND
     1     1     9 1   
     2     1    11 1   
     3     1    28 1   
     4     2     9 ar  
     5     2    18 ar  
     6     2    38 1   
     7     3    18 1   
     8     3    23 1   
     9     3    24 2   
    10     4    14 1   
    11     4    32 2   
    12     4    35 1   
    13     5     6 1   
    14     5    23 1   
    15     5    39 1   
    16     5    69 1   
    17     6    10 1   
    18     6    25 1   
    19     6    40 1   
    20     7    25 1   
    21     7    26 1   
    22     7    27 1   
    23     7    41 1   
    24     8     9 ar  
    25     8    12 1   
    26     8    20 ar  
    27    10    42 1   
    28    10    43 1   
    29    10    44 1   
    30    11    12 ar  
    31    11    16 ar  
    32    12    13 ar  
    33    13    14 ar  
    34    13    45 1   
    35    14    15 ar  
    36    15    16 ar  
    37    15    46 1   
    38    16    17 1   
    39    17    21 2   
    40    17    22 1   
    41    18    19 ar  
    42    19    20 ar  
    43    19    47 1   
    44    20    48 1   
    45    22    49 1   
    46    22    50 1   
    47    23    26 1   
    48    26    51 1   
    49    26    52 1   
    50    27    53 1   
    51    27    54 1   
    52    27    55 1   
    53    28    29 1   
    54    28    56 1   
    55    28    57 1   
    56    29    30 1   
    57    29    31 1   
    58    29    58 1   
    59    30    31 1   
    60    30    59 1   
    61    30    60 1   
    62    31    61 1   
    63    31    62 1   
    64    32    33 1   
    65    32    37 1   
    66    33    34 1   
    67    34    35 2   
    68    35    36 1   
    69    36    63 1   
    70    36    64 1   
    71    36    65 1   
    72    37    66 1   
    73    37    67 1   
    74    37    68 1   
@<TRIPOS>SUBSTRUCTURE
     1 YW1         1 TEMP              0 ****  ****    0 ROOT
