@<TRIPOS>MOLECULE
YW2
   81    86     1     0     0
SMALL
No Charge or Current Charge


@<TRIPOS>ATOM
      1 C17         13.5770     3.3090    25.8110 c5         1 YW2       0.014400
      2 C20         12.7510     2.2290    26.3930 c1         1 YW2      -0.074100
      3 C22         12.0340     1.3640    26.8550 cg         1 YW2      -0.068000
      4 C23         11.2150     0.4020    27.3670 cg         1 YW2      -0.031000
      5 O03          9.8300    -1.6710    29.7160 oh         1 YW2      -0.653000
      6 C24         10.4720    -0.4470    27.8170 c1         1 YW2      -0.142100
      7 C25          9.5270    -1.4460    28.3350 c3         1 YW2       0.267400
      8 C35          6.1930    -0.5800    26.3450 c6         1 YW2      -0.059700
      9 C38          5.8300     0.7360    27.0890 c6         1 YW2      -0.068733
     10 C36          5.3220    -1.7440    26.8940 c6         1 YW2      -0.068733
     11 C37          7.6970    -0.9050    26.5760 c6         1 YW2      -0.063067
     12 C34          7.5980     0.2430    28.8460 c6         1 YW2      -0.063067
     13 C33          6.0930     0.5650    28.6130 c6         1 YW2      -0.059700
     14 C32          5.2220    -0.6020    29.1590 c6         1 YW2      -0.068733
     15 C31          5.5860    -1.9180    28.4150 c6         1 YW2      -0.059700
     16 C30          7.0910    -2.2410    28.6450 c6         1 YW2      -0.063067
     17 C29          8.0050    -1.0820    28.1080 c6         1 YW2      -0.036000
     18 C13         12.7600     4.5230    25.2460 c5         1 YW2      -0.037000
     19 C14         13.9570     5.2440    24.5500 c5         1 YW2      -0.034500
     20 C15         14.5170     4.1060    23.6400 c5         1 YW2      -0.070400
     21 C16         14.4250     2.8450    24.5710 c5         1 YW2      -0.069400
     22 C12         12.1670     5.4610    26.3390 c6         1 YW2      -0.063400
     23 C11         11.6310     6.7830    25.7220 c6         1 YW2      -0.070400
     24 C09         12.6770     7.4990    24.8210 c6         1 YW2      -0.041200
     25 C08         13.4440     6.5430    23.8910 c2         1 YW2      -0.085400
     26 C18         11.5960     4.0840    24.2800 c3         1 YW2      -0.080100
     27 C07         13.7940     6.7960    22.5990 ce         1 YW2      -0.182000
     28 C06         13.4750     8.0280    21.8450 ce         1 YW2      -0.178000
     29 C05         13.6470     8.2350    20.5140 c2         1 YW2      -0.090400
     30 C04         13.2950     9.5730    19.8680 c6         1 YW2      -0.070200
     31 C03         14.4780    10.1650    19.0590 c6         1 YW2       0.210000
     32 C02         15.0570     9.1400    18.0810 c2         1 YW2      -0.120400
     33 C01         15.3900     7.7800    18.7210 c6         1 YW2       0.210000
     34 C10         14.1740     7.2180    19.4990 c6         1 YW2      -0.070200
     35 C28         15.2540     9.4420    16.7810 c2         1 YW2      -0.283000
     36 O01         15.8130     6.8210    17.7400 oh         1 YW2      -0.663000
     37 O02         15.5130    10.6210    19.9390 oh         1 YW2      -0.663000
     38 H1          14.2510     3.6420    26.6100 hc         1 YW2       0.066700
     39 H3           9.7160    -2.3730    27.7760 h1         1 YW2       0.047700
     40 H4           6.0050    -0.4580    25.2690 hc         1 YW2       0.048367
     41 H5           6.4230     1.5720    26.6930 hc         1 YW2       0.040033
     42 H6           4.7760     0.9930    26.9130 hc         1 YW2       0.040033
     43 H7           4.2570    -1.5390    26.7140 hc         1 YW2       0.040033
     44 H8           5.5520    -2.6760    26.3590 hc         1 YW2       0.040033
     45 H9           7.9690    -1.8180    26.0270 hc         1 YW2       0.047367
     46 H10          8.3050    -0.0980    26.1460 hc         1 YW2       0.047367
     47 H11          7.7920     0.1560    29.9240 hc         1 YW2       0.047367
     48 H12          8.2080     1.0860    28.4940 hc         1 YW2       0.047367
     49 H13          5.8310     1.4950    29.1370 hc         1 YW2       0.048367
     50 H14          4.1550    -0.3740    29.0260 hc         1 YW2       0.040033
     51 H15          5.3820    -0.7200    30.2400 hc         1 YW2       0.040033
     52 H16          4.9710    -2.7410    28.8030 hc         1 YW2       0.048367
     53 H17          7.2660    -2.4030    29.7170 hc         1 YW2       0.047367
     54 H18          7.3480    -3.1870    28.1480 hc         1 YW2       0.047367
     55 H19         14.7220     5.5280    25.2850 hc         1 YW2       0.053700
     56 H20         13.9200     3.9590    22.7330 hc         1 YW2       0.048700
     57 H21         15.5460     4.3040    23.3190 hc         1 YW2       0.048700
     58 H22         13.9580     2.0090    24.0360 hc         1 YW2       0.049700
     59 H23         15.4160     2.4980    24.8830 hc         1 YW2       0.049700
     60 H24         11.3630     4.9510    26.8890 hc         1 YW2       0.044200
     61 H25         12.9400     5.7010    27.0820 hc         1 YW2       0.044200
     62 H26         11.3150     7.4620    26.5260 hc         1 YW2       0.042200
     63 H27         10.7240     6.5810    25.1370 hc         1 YW2       0.042200
     64 H28         13.4060     8.0120    25.4630 hc         1 YW2       0.045700
     65 H29         12.1580     8.2850    24.2620 hc         1 YW2       0.045700
     66 H30         10.7230     3.7370    24.8460 hc         1 YW2       0.039700
     67 H31         11.2600     4.9050    23.6360 hc         1 YW2       0.039700
     68 H32         11.8790     3.2610    23.6150 hc         1 YW2       0.039700
     69 H33         14.3880     6.0700    22.0550 ha         1 YW2       0.171000
     70 H34         13.0800     8.8550    22.4320 ha         1 YW2       0.167000
     71 H35         12.9550    10.2990    20.6190 hc         1 YW2       0.052950
     72 H36         12.4430     9.4230    19.1910 hc         1 YW2       0.052950
     73 H37         14.0900    11.0210    18.4860 h1         1 YW2       0.049700
     74 H38         16.2040     7.9410    19.4440 h1         1 YW2       0.049700
     75 H39         13.3690     6.9820    18.7900 hc         1 YW2       0.052950
     76 H40         14.4460     6.2650    19.9630 hc         1 YW2       0.052950
     77 H41         15.6710     8.7260    16.0730 ha         1 YW2       0.176500
     78 H42         15.0070    10.4250    16.3780 ha         1 YW2       0.176500
     79 H43         16.0740     6.0150    18.2340 ho         1 YW2       0.441000
     80 H44         15.0920    11.2570    20.5560 ho         1 YW2       0.441000
     81 H2          10.8030    -1.7900    29.7640 ho         1 YW2       0.446000
@<TRIPOS>BOND
     1     1     2 1   
     2     1    18 1   
     3     1    21 1   
     4     1    38 1   
     5     2     3 3   
     6     3     4 1   
     7     4     6 3   
     8     5     7 1   
     9     5    81 1   
    10     6     7 1   
    11     7    17 1   
    12     7    39 1   
    13     8     9 1   
    14     8    10 1   
    15     8    11 1   
    16     8    40 1   
    17     9    13 1   
    18     9    41 1   
    19     9    42 1   
    20    10    15 1   
    21    10    43 1   
    22    10    44 1   
    23    11    17 1   
    24    11    45 1   
    25    11    46 1   
    26    12    13 1   
    27    12    17 1   
    28    12    47 1   
    29    12    48 1   
    30    13    14 1   
    31    13    49 1   
    32    14    15 1   
    33    14    50 1   
    34    14    51 1   
    35    15    16 1   
    36    15    52 1   
    37    16    17 1   
    38    16    53 1   
    39    16    54 1   
    40    18    19 1   
    41    18    22 1   
    42    18    26 1   
    43    19    20 1   
    44    19    25 1   
    45    19    55 1   
    46    20    21 1   
    47    20    56 1   
    48    20    57 1   
    49    21    58 1   
    50    21    59 1   
    51    22    23 1   
    52    22    60 1   
    53    22    61 1   
    54    23    24 1   
    55    23    62 1   
    56    23    63 1   
    57    24    25 1   
    58    24    64 1   
    59    24    65 1   
    60    25    27 2   
    61    26    66 1   
    62    26    67 1   
    63    26    68 1   
    64    27    28 1   
    65    27    69 1   
    66    28    29 2   
    67    28    70 1   
    68    29    30 1   
    69    29    34 1   
    70    30    31 1   
    71    30    71 1   
    72    30    72 1   
    73    31    32 1   
    74    31    37 1   
    75    31    73 1   
    76    32    33 1   
    77    32    35 2   
    78    33    34 1   
    79    33    36 1   
    80    33    74 1   
    81    34    75 1   
    82    34    76 1   
    83    35    77 1   
    84    35    78 1   
    85    36    79 1   
    86    37    80 1   
@<TRIPOS>SUBSTRUCTURE
     1 YW2         1 TEMP              0 ****  ****    0 ROOT
