@<TRIPOS>MOLECULE
YW2
   81    86     1     0     0
SMALL
abcg2


@<TRIPOS>ATOM
      1 C17         13.7720     3.6840    26.5790 c5         1 YW2       0.014400
      2 C20         12.9310     2.5700    26.9590 c1         1 YW2      -0.074100
      3 C22         12.2080     1.6340    27.2250 cg         1 YW2      -0.068000
      4 C23         11.3670     0.5790    27.4120 cg         1 YW2      -0.031000
      5 O03          9.7080    -2.0910    28.8980 oh         1 YW2      -0.653000
      6 C24         10.5700    -0.3220    27.5530 c1         1 YW2      -0.142100
      7 C25          9.5840    -1.3980    27.6500 c3         1 YW2       0.267400
      8 C35          6.5470     0.3330    25.9690 c6         1 YW2      -0.059700
      9 C38          6.1710     1.2740    27.1180 c6         1 YW2      -0.068733
     10 C36          5.6020    -0.8740    25.9650 c6         1 YW2      -0.068733
     11 C37          7.9910    -0.1440    26.1580 c6         1 YW2      -0.063067
     12 C34          7.7390     0.0540    28.6410 c6         1 YW2      -0.063067
     13 C33          6.2940     0.5270    28.4520 c6         1 YW2      -0.059700
     14 C32          5.3510    -0.6830    28.4460 c6         1 YW2      -0.068733
     15 C31          5.7290    -1.6210    27.2950 c6         1 YW2      -0.059700
     16 C30          7.1750    -2.0950    27.4840 c6         1 YW2      -0.063067
     17 C29          8.1340    -0.8920    27.4950 c6         1 YW2      -0.036000
     18 C13         13.0230     4.8420    25.8490 c5         1 YW2      -0.037000
     19 C14         14.2150     5.5220    25.1270 c5         1 YW2      -0.034500
     20 C15         14.9950     4.3610    24.5110 c5         1 YW2      -0.070400
     21 C16         14.9410     3.2760    25.6090 c5         1 YW2      -0.069400
     22 C12         12.3760     5.8630    26.7880 c6         1 YW2      -0.063400
     23 C11         11.9450     7.1260    26.0320 c6         1 YW2      -0.070400
     24 C09         13.0680     7.7270    25.1660 c6         1 YW2      -0.041200
     25 C08         13.7570     6.6890    24.3080 c2         1 YW2      -0.085400
     26 C18         11.9940     4.2810    24.8590 c3         1 YW2      -0.080100
     27 C07         13.9000     6.7480    22.9740 ce         1 YW2      -0.182000
     28 C06         13.4720     7.8360    22.1120 ce         1 YW2      -0.178000
     29 C05         13.3620     7.8090    20.7740 c2         1 YW2      -0.090400
     30 C04         12.9030     9.0250    20.0080 c6         1 YW2      -0.070200
     31 C03         13.8240     9.3330    18.8170 c6         1 YW2       0.210000
     32 C02         13.9760     8.1090    17.9550 c2         1 YW2      -0.120400
     33 C01         14.5070     6.9080    18.6920 c6         1 YW2       0.210000
     34 C10         13.6160     6.5960    19.9140 c6         1 YW2      -0.070200
     35 C28         13.5980     8.1010    16.6820 c2         1 YW2      -0.283000
     36 O01         14.5820     5.7800    17.8160 oh         1 YW2      -0.663000
     37 O02         15.1420     9.7030    19.2640 oh         1 YW2      -0.663000
     38 H1          14.2100     4.1050    27.4880 hc         1 YW2       0.066700
     39 H3           9.7710    -2.0960    26.8290 h1         1 YW2       0.047700
     40 H4           6.4680     0.8640    25.0200 hc         1 YW2       0.048367
     41 H5           6.8270     2.1480    27.1170 hc         1 YW2       0.040033
     42 H6           5.1480     1.6340    26.9830 hc         1 YW2       0.040033
     43 H7           4.5710    -0.5430    25.8180 hc         1 YW2       0.040033
     44 H8           5.8520    -1.5420    25.1370 hc         1 YW2       0.040033
     45 H9           8.2730    -0.8070    25.3370 hc         1 YW2       0.047367
     46 H10          8.6680     0.7120    26.1360 hc         1 YW2       0.047367
     47 H11          7.8380    -0.4660    29.5960 hc         1 YW2       0.047367
     48 H12          8.4140     0.9110    28.6630 hc         1 YW2       0.047367
     49 H13          6.0280     1.1960    29.2730 hc         1 YW2       0.048367
     50 H14          4.3150    -0.3490    28.3330 hc         1 YW2       0.040033
     51 H15          5.4220    -1.2110    29.3980 hc         1 YW2       0.040033
     52 H16          5.0640    -2.4880    27.2940 hc         1 YW2       0.048367
     53 H17          7.2660    -2.6470    28.4220 hc         1 YW2       0.047367
     54 H18          7.4530    -2.7740    26.6740 hc         1 YW2       0.047367
     55 H19         14.8410     5.9360    25.9340 hc         1 YW2       0.053700
     56 H20         14.5060     4.0050    23.6010 hc         1 YW2       0.048700
     57 H21         16.0160     4.6330    24.2500 hc         1 YW2       0.048700
     58 H22         14.7820     2.2820    25.1930 hc         1 YW2       0.049700
     59 H23         15.8730     3.2440    26.1760 hc         1 YW2       0.049700
     60 H24         11.5140     5.4240    27.2970 hc         1 YW2       0.044200
     61 H25         13.1010     6.1360    27.5600 hc         1 YW2       0.044200
     62 H26         11.6050     7.8810    26.7470 hc         1 YW2       0.042200
     63 H27         11.0860     6.9010    25.3920 hc         1 YW2       0.042200
     64 H28         13.8200     8.1720    25.8340 hc         1 YW2       0.045700
     65 H29         12.6630     8.5360    24.5620 hc         1 YW2       0.045700
     66 H30         11.1630     3.8290    25.3960 hc         1 YW2       0.039700
     67 H31         11.6000     5.0670    24.2140 hc         1 YW2       0.039700
     68 H32         12.4280     3.5150    24.2110 hc         1 YW2       0.039700
     69 H33         14.3770     5.9030    22.4920 ha         1 YW2       0.171000
     70 H34         13.2110     8.7720    22.6000 ha         1 YW2       0.167000
     71 H35         12.8520     9.9000    20.6600 hc         1 YW2       0.052950
     72 H36         11.9040     8.8620    19.6080 hc         1 YW2       0.052950
     73 H37         13.3960    10.1490    18.2250 h1         1 YW2       0.049700
     74 H38         15.5130     7.1490    19.0530 h1         1 YW2       0.049700
     75 H39         12.6610     6.2280    19.5200 hc         1 YW2       0.052950
     76 H40         14.0700     5.7870    20.4860 hc         1 YW2       0.052950
     77 H41         13.7850     7.1980    16.0210 ha         1 YW2       0.176500
     78 H42         13.1930     8.9980    16.2200 ha         1 YW2       0.176500
     79 H43         15.0120     5.0510    18.2920 ho         1 YW2       0.441000
     80 H44         15.0530    10.4760    19.8340 ho         1 YW2       0.441000
     81 H2          10.5830    -2.4910    28.9300 ho         1 YW2       0.446000
@<TRIPOS>BOND
     1     1     2 1   
     2     1    18 1   
     3     1    21 1   
     4     1    38 1   
     5     2     3 3   
     6     3     4 1   
     7     4     6 3   
     8     5     7 1   
     9     5    81 1   
    10     6     7 1   
    11     7    17 1   
    12     7    39 1   
    13     8     9 1   
    14     8    10 1   
    15     8    11 1   
    16     8    40 1   
    17     9    13 1   
    18     9    41 1   
    19     9    42 1   
    20    10    15 1   
    21    10    43 1   
    22    10    44 1   
    23    11    17 1   
    24    11    45 1   
    25    11    46 1   
    26    12    13 1   
    27    12    17 1   
    28    12    47 1   
    29    12    48 1   
    30    13    14 1   
    31    13    49 1   
    32    14    15 1   
    33    14    50 1   
    34    14    51 1   
    35    15    16 1   
    36    15    52 1   
    37    16    17 1   
    38    16    53 1   
    39    16    54 1   
    40    18    19 1   
    41    18    22 1   
    42    18    26 1   
    43    19    20 1   
    44    19    25 1   
    45    19    55 1   
    46    20    21 1   
    47    20    56 1   
    48    20    57 1   
    49    21    58 1   
    50    21    59 1   
    51    22    23 1   
    52    22    60 1   
    53    22    61 1   
    54    23    24 1   
    55    23    62 1   
    56    23    63 1   
    57    24    25 1   
    58    24    64 1   
    59    24    65 1   
    60    25    27 2   
    61    26    66 1   
    62    26    67 1   
    63    26    68 1   
    64    27    28 1   
    65    27    69 1   
    66    28    29 2   
    67    28    70 1   
    68    29    30 1   
    69    29    34 1   
    70    30    31 1   
    71    30    71 1   
    72    30    72 1   
    73    31    32 1   
    74    31    37 1   
    75    31    73 1   
    76    32    33 1   
    77    32    35 2   
    78    33    34 1   
    79    33    36 1   
    80    33    74 1   
    81    34    75 1   
    82    34    76 1   
    83    35    77 1   
    84    35    78 1   
    85    36    79 1   
    86    37    80 1   
@<TRIPOS>SUBSTRUCTURE
     1 YW2         1 TEMP              0 ****  ****    0 ROOT
