@<TRIPOS>MOLECULE
YW4
   61    65     1     0     0
SMALL
bcc


@<TRIPOS>ATOM
      1 C13        -12.9310   -25.8510    14.1200 ca         1 YW4      -0.094600
      2 C18        -12.8700   -21.3080    19.5700 ca         1 YW4      -0.117500
      3 C17        -13.0010   -22.0270    18.3850 ca         1 YW4      -0.116300
      4 C16        -12.0740   -23.1970    18.1420 c3         1 YW4       0.101600
      5 C15         -9.1160   -20.0580    14.8190 c3         1 YW4       0.207100
      6 C19        -13.7120   -20.2410    19.8480 ca         1 YW4      -0.126000
      7 C20        -14.6950   -19.8760    18.9370 ca         1 YW4      -0.123000
      8 C21        -14.8300   -20.5870    17.7540 ca         1 YW4      -0.126000
      9 C22        -13.9880   -21.6590    17.4790 ca         1 YW4      -0.117500
     10 C23        -14.7570   -28.2310    18.0030 cc         1 YW4       0.313000
     11 C24        -14.9060   -27.6510    16.7790 cd         1 YW4      -0.310600
     12 C11        -14.0390   -26.6660    16.1360 ca         1 YW4       0.024000
     13 C12        -13.7510   -26.7630    14.7670 ca         1 YW4      -0.137000
     14 C1         -10.1380   -22.0020    13.5160 ca         1 YW4      -0.157000
     15 C2          -9.9740   -21.3200    14.7300 ca         1 YW4      -0.074300
     16 C3         -10.5800   -21.8220    15.8740 ca         1 YW4      -0.157000
     17 C4         -11.3340   -22.9830    15.7750 ca         1 YW4      -0.000200
     18 C5         -11.5090   -23.6750    14.5600 cp         1 YW4      -0.084000
     19 C6         -10.8910   -23.1600    13.4220 ca         1 YW4      -0.054000
     20 N7         -12.0180   -23.6340    16.7740 na         1 YW4      -0.070300
     21 C8         -12.6550   -24.7230    16.2350 ca         1 YW4      -0.003200
     22 C9         -12.3560   -24.8080    14.8570 cp         1 YW4      -0.033000
     23 C10        -13.4930   -25.6250    16.8760 ca         1 YW4      -0.143000
     24 C14        -12.6170   -26.0640    12.6730 c          1 YW4       0.686700
     25 C25        -16.1230   -28.2180    16.2910 cd         1 YW4       0.356600
     26 N26        -16.6320   -29.0410    17.1600 nc         1 YW4      -0.364300
     27 O27        -15.7810   -29.0550    18.2250 os         1 YW4      -0.114100
     28 C29        -16.8130   -27.9570    14.9990 c3         1 YW4      -0.133400
     29 C30         -7.8430   -20.3740    15.6030 c3         1 YW4      -0.099600
     30 C31         -9.8890   -18.9250    15.4990 c3         1 YW4      -0.099600
     31 O32         -8.6880   -19.6370    13.5400 oh         1 YW4      -0.592800
     32 O33        -11.4710   -26.0150    12.2530 o          1 YW4      -0.594100
     33 N34        -13.6750   -26.3370    11.8960 nt         1 YW4      -0.675000
     34 H42        -12.1000   -21.5840    20.2810 ha         1 YW4       0.135000
     35 H40        -12.3760   -24.0420    18.7620 h1         1 YW4       0.063200
     36 H41        -11.0650   -22.9400    18.4720 h1         1 YW4       0.063200
     37 H43        -13.5960   -19.6910    20.7730 ha         1 YW4       0.133000
     38 H44        -15.3500   -19.0400    19.1480 ha         1 YW4       0.133000
     39 H45        -15.5910   -20.3090    17.0370 ha         1 YW4       0.133000
     40 H46        -14.1070   -22.2010    16.5480 ha         1 YW4       0.135000
     41 H39        -14.1510   -27.5990    14.2080 ha         1 YW4       0.136000
     42 H35         -9.6590   -21.6270    12.6220 ha         1 YW4       0.142000
     43 H36        -10.4710   -21.3210    16.8280 ha         1 YW4       0.137000
     44 H37        -10.9860   -23.6530    12.4660 ha         1 YW4       0.154000
     45 H38        -13.7420   -25.5100    17.9230 ha         1 YW4       0.139000
     46 H49        -13.5490   -29.0830    19.5380 hc         1 YW4       0.065033
     47 H47        -12.7850   -27.7720    18.6320 hc         1 YW4       0.065033
     48 H48        -14.0210   -27.4100    19.8310 hc         1 YW4       0.065033
     49 H50        -17.8400   -28.3160    15.0310 hc         1 YW4       0.056033
     50 H52        -16.8220   -26.8910    14.7740 hc         1 YW4       0.056033
     51 H51        -16.3070   -28.4590    14.1740 hc         1 YW4       0.056033
     52 H55         -8.0840   -20.7040    16.6130 hc         1 YW4       0.044033
     53 H53         -7.2700   -21.1660    15.1190 hc         1 YW4       0.044033
     54 H54         -7.2120   -19.4870    15.6800 hc         1 YW4       0.044033
     55 H56        -10.1770   -19.1770    16.5180 hc         1 YW4       0.044033
     56 H57         -9.2710   -18.0270    15.5430 hc         1 YW4       0.044033
     57 H58        -10.8020   -18.6860    14.9480 hc         1 YW4       0.044033
     58 H59         -9.4480   -19.2970    13.0540 ho         1 YW4       0.405000
     59 H61        -13.5470   -26.5260    10.9140 hn         1 YW4       0.315000
     60 H60        -14.6190   -26.2930    12.2390 hn         1 YW4       0.315000
     61 C28        -13.7240   -28.1210    19.0580 c3         1 YW4      -0.140400
@<TRIPOS>BOND
     1     1    13 ar  
     2     1    22 ar  
     3     1    24 1   
     4     2     3 ar  
     5     2     6 ar  
     6     2    34 1   
     7     3     4 1   
     8     3     9 ar  
     9     4    20 1   
    10     4    35 1   
    11     4    36 1   
    12     5    15 1   
    13     5    29 1   
    14     5    30 1   
    15     5    31 1   
    16     6     7 ar  
    17     6    37 1   
    18     7     8 ar  
    19     7    38 1   
    20     8     9 ar  
    21     8    39 1   
    22     9    40 1   
    23    10    11 2   
    24    10    27 1   
    25    10    61 1   
    26    11    12 1   
    27    11    25 1   
    28    12    13 ar  
    29    12    23 ar  
    30    13    41 1   
    31    14    15 ar  
    32    14    19 ar  
    33    14    42 1   
    34    15    16 ar  
    35    16    17 ar  
    36    16    43 1   
    37    17    18 ar  
    38    17    20 1   
    39    18    19 ar  
    40    18    22 1   
    41    19    44 1   
    42    20    21 1   
    43    21    22 ar  
    44    21    23 ar  
    45    23    45 1   
    46    24    32 2   
    47    24    33 1   
    48    25    26 2   
    49    25    28 1   
    50    26    27 1   
    51    28    49 1   
    52    28    50 1   
    53    28    51 1   
    54    29    52 1   
    55    29    53 1   
    56    29    54 1   
    57    30    55 1   
    58    30    56 1   
    59    30    57 1   
    60    31    58 1   
    61    33    59 1   
    62    33    60 1   
    63    46    61 1   
    64    47    61 1   
    65    48    61 1   
@<TRIPOS>SUBSTRUCTURE
     1 YW4         1 TEMP              0 ****  ****    0 ROOT
