@<TRIPOS>MOLECULE
YW4
   61    65     1     0     0
SMALL
No Charge or Current Charge


@<TRIPOS>ATOM
      1 C13        -12.7640   -25.9480    14.1780 ca         1 YW4      -0.094600
      2 C18        -12.5640   -21.0580    19.3960 ca         1 YW4      -0.099500
      3 C17        -13.0050   -22.0900    18.5420 ca         1 YW4      -0.116300
      4 C16        -12.0870   -23.2730    18.2410 c3         1 YW4       0.130900
      5 C15         -9.2090   -19.8880    14.7980 c3         1 YW4       0.230300
      6 C19        -13.4000   -19.9630    19.6770 ca         1 YW4      -0.108000
      7 C20        -14.6830   -19.8930    19.1100 ca         1 YW4      -0.105000
      8 C21        -15.1310   -20.9190    18.2620 ca         1 YW4      -0.108000
      9 C22        -14.2960   -22.0140    17.9790 ca         1 YW4      -0.099500
     10 C23        -15.2330   -28.0430    18.0010 cc         1 YW4       0.203300
     11 C24        -15.0760   -27.7040    16.6810 cd         1 YW4      -0.180000
     12 C11        -14.1150   -26.7330    16.1030 ca         1 YW4       0.024000
     13 C12        -13.6870   -26.8560    14.7550 ca         1 YW4      -0.119000
     14 C1         -10.1550   -21.9310    13.5730 ca         1 YW4      -0.139000
     15 C2         -10.0070   -21.2130    14.7930 ca         1 YW4      -0.074300
     16 C3         -10.6130   -21.7390    15.9630 ca         1 YW4      -0.139000
     17 C4         -11.3100   -22.9490    15.8620 ca         1 YW4      -0.000200
     18 C5         -11.4420   -23.6760    14.6800 cp         1 YW4      -0.084000
     19 C6         -10.8770   -23.1430    13.5010 ca         1 YW4      -0.036000
     20 N7         -12.0530   -23.6520    16.8150 na         1 YW4      -0.099600
     21 C8         -12.6900   -24.7860    16.2920 ca         1 YW4      -0.003200
     22 C9         -12.2840   -24.8620    14.9570 cp         1 YW4      -0.033000
     23 C10        -13.5890   -25.6800    16.8860 ca         1 YW4      -0.125000
     24 C14        -12.2530   -26.1310    12.7720 c          1 YW4       0.619700
     25 C25        -16.1530   -28.3630    16.0250 cd         1 YW4       0.291300
     26 N26        -16.8820   -29.1050    16.8380 nc         1 YW4      -0.364300
     27 O27        -16.2840   -28.9160    18.1250 os         1 YW4      -0.069700
     28 C29        -16.5700   -28.2580    14.5810 c3         1 YW4      -0.133400
     29 C30         -7.7190   -20.1650    14.4940 c3         1 YW4      -0.099600
     30 C31         -9.3340   -19.0800    16.1140 c3         1 YW4      -0.099600
     31 O32         -9.7130   -19.0510    13.7560 oh         1 YW4      -0.655000
     32 O33        -11.0770   -26.0490    12.4610 o          1 YW4      -0.594100
     33 N34        -13.1600   -26.5030    11.8420 nt         1 YW4      -0.608000
     34 H42        -11.5720   -21.1010    19.8410 ha         1 YW4       0.117000
     35 H40        -12.4040   -24.1350    18.8400 h1         1 YW4       0.063200
     36 H41        -11.0630   -23.0320    18.5520 h1         1 YW4       0.063200
     37 H43        -13.0520   -19.1690    20.3340 ha         1 YW4       0.115000
     38 H44        -15.3290   -19.0450    19.3270 ha         1 YW4       0.115000
     39 H45        -16.1250   -20.8670    17.8230 ha         1 YW4       0.115000
     40 H46        -14.6570   -22.8030    17.3220 ha         1 YW4       0.117000
     41 H39        -14.0190   -27.7020    14.1630 ha         1 YW4       0.118000
     42 H35         -9.7180   -21.5360    12.6590 ha         1 YW4       0.124000
     43 H36        -10.5620   -21.2310    16.9210 ha         1 YW4       0.119000
     44 H37        -11.0010   -23.6270    12.5390 ha         1 YW4       0.136000
     45 H38        -13.9060   -25.5240    17.9100 ha         1 YW4       0.121000
     46 H49        -14.5480   -28.5200    19.9850 hc         1 YW4       0.065033
     47 H47        -13.3750   -27.6240    19.0120 hc         1 YW4       0.065033
     48 H48        -14.7910   -26.7900    19.6970 hc         1 YW4       0.065033
     49 H50        -17.6310   -28.5060    14.4530 hc         1 YW4       0.056033
     50 H52        -16.4280   -27.2410    14.2000 hc         1 YW4       0.056033
     51 H51        -15.9940   -28.9480    13.9550 hc         1 YW4       0.056033
     52 H55         -7.2870   -20.8200    15.2590 hc         1 YW4       0.044033
     53 H53         -7.5960   -20.6540    13.5200 hc         1 YW4       0.044033
     54 H54         -7.1420   -19.2320    14.4780 hc         1 YW4       0.044033
     55 H56         -8.8860   -19.6250    16.9530 hc         1 YW4       0.044033
     56 H57         -8.8140   -18.1180    16.0300 hc         1 YW4       0.044033
     57 H58        -10.3850   -18.8740    16.3530 hc         1 YW4       0.044033
     58 H59        -10.6910   -19.0900    13.8240 ho         1 YW4       0.444000
     59 H61        -12.8550   -26.6670    10.8950 hn         1 YW4       0.315000
     60 H60        -14.1330   -26.5860    12.0930 hn         1 YW4       0.315000
     61 C28        -14.4420   -27.7230    19.2400 c3         1 YW4      -0.140400
@<TRIPOS>BOND
     1     1    13 ar  
     2     1    22 ar  
     3     1    24 1   
     4     2     3 ar  
     5     2     6 ar  
     6     2    34 1   
     7     3     4 1   
     8     3     9 ar  
     9     4    20 1   
    10     4    35 1   
    11     4    36 1   
    12     5    15 1   
    13     5    29 1   
    14     5    30 1   
    15     5    31 1   
    16     6     7 ar  
    17     6    37 1   
    18     7     8 ar  
    19     7    38 1   
    20     8     9 ar  
    21     8    39 1   
    22     9    40 1   
    23    10    11 2   
    24    10    27 1   
    25    10    61 1   
    26    11    12 1   
    27    11    25 1   
    28    12    13 ar  
    29    12    23 ar  
    30    13    41 1   
    31    14    15 ar  
    32    14    19 ar  
    33    14    42 1   
    34    15    16 ar  
    35    16    17 ar  
    36    16    43 1   
    37    17    18 ar  
    38    17    20 1   
    39    18    19 ar  
    40    18    22 1   
    41    19    44 1   
    42    20    21 1   
    43    21    22 ar  
    44    21    23 ar  
    45    23    45 1   
    46    24    32 2   
    47    24    33 1   
    48    25    26 2   
    49    25    28 1   
    50    26    27 1   
    51    28    49 1   
    52    28    50 1   
    53    28    51 1   
    54    29    52 1   
    55    29    53 1   
    56    29    54 1   
    57    30    55 1   
    58    30    56 1   
    59    30    57 1   
    60    31    58 1   
    61    33    59 1   
    62    33    60 1   
    63    46    61 1   
    64    47    61 1   
    65    48    61 1   
@<TRIPOS>SUBSTRUCTURE
     1 YW4         1 TEMP              0 ****  ****    0 ROOT
