@<TRIPOS>MOLECULE
YW5
   71    77     1     0     0
SMALL
No Charge or Current Charge


@<TRIPOS>ATOM
      1 C11         -9.6770    41.3060    61.8450 cp         1 YW5      -0.047000
      2 C15         -8.0450    41.2740    59.8990 ca         1 YW5      -0.030000
      3 C01        -16.5360    44.4270    66.0400 c3         1 YW5       0.157100
      4 C03        -15.6900    42.9500    64.2450 c6         1 YW5       0.169300
      5 C04        -14.4690    42.6160    63.3400 c6         1 YW5      -0.068400
      6 C05        -13.1090    43.0520    63.9590 c6         1 YW5      -0.012400
      7 C06        -13.1030    42.7380    65.4770 c6         1 YW5      -0.068400
      8 C07        -14.2930    43.4080    66.2240 c6         1 YW5       0.169300
      9 C08        -11.9100    42.4340    63.2220 ca         1 YW5      -0.065300
     10 C09        -11.6890    41.0420    63.2330 ca         1 YW5      -0.107500
     11 C10        -10.5900    40.4880    62.5560 ca         1 YW5      -0.096000
     12 C12         -9.9130    42.7040    61.8410 ca         1 YW5      -0.096000
     13 C13        -11.0110    43.2590    62.5190 ca         1 YW5      -0.107500
     14 C14         -8.5060    40.7150    61.1230 cp         1 YW5      -0.035000
     15 C16         -6.9450    40.6900    59.2550 ca         1 YW5      -0.163600
     16 C17         -6.2890    39.5860    59.7660 ca         1 YW5      -0.089300
     17 C18         -5.1340    39.1460    58.8770 c5         1 YW5       0.151300
     18 C20         -4.3550    40.2840    56.6070 c3         1 YW5       0.162700
     19 C21         -3.4260    41.4860    56.6830 cc         1 YW5       0.404800
     20 C23         -2.1700    43.0980    57.5420 ca         1 YW5      -0.077200
     21 C24         -2.1250    43.1390    56.1790 ca         1 YW5       0.071400
     22 C26         -1.3570    44.1100    55.5190 ca         1 YW5      -0.046000
     23 C27         -0.6350    45.0390    56.3030 ca         1 YW5      -0.136000
     24 C28         -0.6920    44.9830    57.7170 ca         1 YW5      -0.093000
     25 C29         -1.4720    43.9970    58.3570 ca         1 YW5      -0.115000
     26 C30         -3.6170    38.9750    56.3130 ca         1 YW5      -0.071300
     27 C31         -2.4100    38.6540    56.9730 ca         1 YW5      -0.138000
     28 C32         -1.7560    37.4420    56.6980 ca         1 YW5       0.169000
     29 C34         -2.2940    36.5370    55.7710 ca         1 YW5      -0.141000
     30 C35         -3.4970    36.8460    55.1140 ca         1 YW5      -0.085000
     31 C36         -4.1550    38.0580    55.3860 ca         1 YW5      -0.104000
     32 C37         -6.2940    41.0800    57.9940 c          1 YW5       0.571600
     33 C39         -6.7160    39.0100    60.9700 ca         1 YW5      -0.099000
     34 C40         -7.8200    39.5770    61.6410 ca         1 YW5      -0.079000
     35 F33         -0.6020    37.1440    57.3340 f          1 YW5      -0.177000
     36 N02        -15.3500    43.9300    65.3090 n3         1 YW5      -0.724600
     37 N19         -5.2370    40.1800    57.7980 n          1 YW5      -0.441800
     38 N22         -2.9850    42.0630    57.8760 na         1 YW5      -0.304600
     39 N25         -2.9070    42.1350    55.6160 nd         1 YW5      -0.564100
     40 O38         -6.6020    42.0070    57.2600 o          1 YW5      -0.516000
     41 H2         -16.2470    45.1940    66.7710 h1         1 YW5       0.029700
     42 H3         -17.2590    44.8750    65.3470 h1         1 YW5       0.029700
     43 H4         -17.0350    43.6090    66.5780 h1         1 YW5       0.029700
     44 H5         -16.5050    43.3300    63.6120 h1         1 YW5       0.030700
     45 H6         -16.0550    42.0190    64.7060 h1         1 YW5       0.030700
     46 H7         -14.4710    41.5370    63.1340 hc         1 YW5       0.043950
     47 H8         -14.5900    43.1090    62.3660 hc         1 YW5       0.043950
     48 H9         -13.0410    44.1450    63.8600 hc         1 YW5       0.067700
     49 H10        -13.1590    41.6520    65.6300 hc         1 YW5       0.043950
     50 H11        -12.1550    43.0620    65.9280 hc         1 YW5       0.043950
     51 H12        -14.7190    42.6750    66.9260 h1         1 YW5       0.030700
     52 H13        -13.9020    44.2360    66.8340 h1         1 YW5       0.030700
     53 H14        -12.3720    40.3820    63.7630 ha         1 YW5       0.114500
     54 H15        -10.4540    39.4100    62.5720 ha         1 YW5       0.114500
     55 H16         -9.2290    43.3690    61.3200 ha         1 YW5       0.114500
     56 H17        -11.1600    44.3360    62.4970 ha         1 YW5       0.114500
     57 H18         -5.2860    38.1300    58.4880 h1         1 YW5       0.065200
     58 H19         -4.1720    39.1940    59.4050 h1         1 YW5       0.065200
     59 H20         -5.0090    40.4780    55.7470 h1         1 YW5       0.102700
     60 H21         -1.3190    44.1440    54.4330 ha         1 YW5       0.128000
     61 H22         -0.0320    45.8020    55.8150 ha         1 YW5       0.113000
     62 H23         -0.1330    45.7020    58.3110 ha         1 YW5       0.111000
     63 H24         -1.5270    43.9390    59.4420 ha         1 YW5       0.116000
     64 H25         -1.9750    39.3340    57.7000 ha         1 YW5       0.134000
     65 H26         -1.7810    35.6010    55.5660 ha         1 YW5       0.135000
     66 H27         -3.9210    36.1460    54.3970 ha         1 YW5       0.122000
     67 H28         -5.0900    38.2830    54.8760 ha         1 YW5       0.126000
     68 H29         -6.2040    38.1430    61.3820 ha         1 YW5       0.122000
     69 H30         -8.1400    39.1360    62.5810 ha         1 YW5       0.120000
     70 H32         -3.2450    41.7640    58.8060 hn         1 YW5       0.359000
     71 H1          -8.5400    42.1330    59.4550 ha         1 YW5       0.140000
@<TRIPOS>BOND
     1     1    11 ar  
     2     1    12 ar  
     3     1    14 1   
     4     2    14 ar  
     5     2    15 ar  
     6     2    71 1   
     7     3    36 1   
     8     3    41 1   
     9     3    42 1   
    10     3    43 1   
    11     4     5 1   
    12     4    36 1   
    13     4    44 1   
    14     4    45 1   
    15     5     6 1   
    16     5    46 1   
    17     5    47 1   
    18     6     7 1   
    19     6     9 1   
    20     6    48 1   
    21     7     8 1   
    22     7    49 1   
    23     7    50 1   
    24     8    36 1   
    25     8    51 1   
    26     8    52 1   
    27     9    10 ar  
    28     9    13 ar  
    29    10    11 ar  
    30    10    53 1   
    31    11    54 1   
    32    12    13 ar  
    33    12    55 1   
    34    13    56 1   
    35    14    34 ar  
    36    15    16 ar  
    37    15    32 1   
    38    16    17 1   
    39    16    33 ar  
    40    17    37 1   
    41    17    57 1   
    42    17    58 1   
    43    18    19 1   
    44    18    26 1   
    45    18    37 1   
    46    18    59 1   
    47    19    38 1   
    48    19    39 2   
    49    20    21 ar  
    50    20    25 ar  
    51    20    38 1   
    52    21    22 ar  
    53    21    39 1   
    54    22    23 ar  
    55    22    60 1   
    56    23    24 ar  
    57    23    61 1   
    58    24    25 ar  
    59    24    62 1   
    60    25    63 1   
    61    26    27 ar  
    62    26    31 ar  
    63    27    28 ar  
    64    27    64 1   
    65    28    29 ar  
    66    28    35 1   
    67    29    30 ar  
    68    29    65 1   
    69    30    31 ar  
    70    30    66 1   
    71    31    67 1   
    72    32    37 1   
    73    32    40 2   
    74    33    34 ar  
    75    33    68 1   
    76    34    69 1   
    77    38    70 1   
@<TRIPOS>SUBSTRUCTURE
     1 YW5         1 TEMP              0 ****  ****    0 ROOT
