@<TRIPOS>MOLECULE
YW5
   71    77     1     0     0
SMALL
abcg2


@<TRIPOS>ATOM
      1 C11         -9.6600    41.3150    61.7990 cp         1 YW5      -0.047000
      2 C15         -8.0170    41.3280    59.9190 ca         1 YW5      -0.030000
      3 C01        -16.3270    44.3470    65.9960 c3         1 YW5       0.157100
      4 C03        -15.5220    42.9250    64.2180 c6         1 YW5       0.169300
      5 C04        -14.3460    42.7750    63.2450 c6         1 YW5      -0.068400
      6 C05        -13.0030    43.0410    63.9470 c6         1 YW5      -0.012400
      7 C06        -13.0980    42.5430    65.3900 c6         1 YW5      -0.068400
      8 C07        -14.1780    43.3140    66.1590 c6         1 YW5       0.169300
      9 C08        -11.8440    42.4370    63.1990 ca         1 YW5      -0.065300
     10 C09        -11.7170    41.0560    63.0480 ca         1 YW5      -0.107500
     11 C10        -10.6460    40.5050    62.3650 ca         1 YW5      -0.096000
     12 C12         -9.7880    42.6950    61.9430 ca         1 YW5      -0.096000
     13 C13        -10.8610    43.2420    62.6330 ca         1 YW5      -0.107500
     14 C14         -8.5200    40.7250    61.0710 cp         1 YW5      -0.035000
     15 C16         -6.9500    40.7310    59.2730 ca         1 YW5      -0.163600
     16 C17         -6.3700    39.5610    59.7300 ca         1 YW5      -0.089300
     17 C18         -5.2510    39.1660    58.8200 c5         1 YW5       0.151300
     18 C20         -4.4270    40.3100    56.6590 c3         1 YW5       0.162700
     19 C21         -3.5180    41.5050    56.7130 cc         1 YW5       0.404800
     20 C23         -2.2680    43.1060    57.5440 ca         1 YW5      -0.077200
     21 C24         -2.2410    43.1060    56.1390 ca         1 YW5       0.071400
     22 C26         -1.4850    44.0590    55.4590 ca         1 YW5      -0.046000
     23 C27         -0.7790    44.9810    56.2100 ca         1 YW5      -0.136000
     24 C28         -0.8190    44.9680    57.6130 ca         1 YW5      -0.093000
     25 C29         -1.5650    44.0310    58.3070 ca         1 YW5      -0.115000
     26 C30         -3.6550    39.0260    56.4470 ca         1 YW5      -0.071300
     27 C31         -2.5030    38.7510    57.1780 ca         1 YW5      -0.138000
     28 C32         -1.8610    37.5450    56.9790 ca         1 YW5       0.169000
     29 C34         -2.3100    36.6050    56.0710 ca         1 YW5      -0.141000
     30 C35         -3.4530    36.8950    55.3420 ca         1 YW5      -0.085000
     31 C36         -4.1250    38.0950    55.5290 ca         1 YW5      -0.104000
     32 C37         -6.2520    41.1540    58.0450 c          1 YW5       0.571600
     33 C39         -6.8550    38.9490    60.8720 ca         1 YW5      -0.099000
     34 C40         -7.9240    39.5400    61.5280 ca         1 YW5      -0.079000
     35 F33         -0.7580    37.2770    57.6950 f          1 YW5      -0.177000
     36 N02        -15.1820    43.8670    65.2640 n3         1 YW5      -0.724600
     37 N19         -5.2700    40.2330    57.8350 n          1 YW5      -0.441800
     38 N22         -3.0940    42.0630    57.8740 na         1 YW5      -0.304600
     39 N25         -3.0360    42.0930    55.6550 nd         1 YW5      -0.564100
     40 O38         -6.4740    42.1210    57.3400 o          1 YW5      -0.516000
     41 H2         -16.0170    45.0970    66.7260 h1         1 YW5       0.029700
     42 H3         -17.0390    44.8190    65.3180 h1         1 YW5       0.029700
     43 H4         -16.8600    43.5530    66.5450 h1         1 YW5       0.029700
     44 H5         -16.4000    43.2940    63.6830 h1         1 YW5       0.030700
     45 H6         -15.8060    41.9430    64.6320 h1         1 YW5       0.030700
     46 H7         -14.3590    41.7670    62.8240 hc         1 YW5       0.043950
     47 H8         -14.4520    43.4640    62.4050 hc         1 YW5       0.043950
     48 H9         -12.8440    44.1220    63.9780 hc         1 YW5       0.067700
     49 H10        -13.3300    41.4740    65.3860 hc         1 YW5       0.043950
     50 H11        -12.1390    42.6460    65.9010 hc         1 YW5       0.043950
     51 H12        -14.6340    42.6420    66.9060 h1         1 YW5       0.030700
     52 H13        -13.7270    44.1390    66.7190 h1         1 YW5       0.030700
     53 H14        -12.4690    40.3940    63.4620 ha         1 YW5       0.114500
     54 H15        -10.5910    39.4290    62.2550 ha         1 YW5       0.114500
     55 H16         -9.0330    43.3550    61.5330 ha         1 YW5       0.114500
     56 H17        -10.9280    44.3190    62.7370 ha         1 YW5       0.114500
     57 H18         -5.4260    38.1890    58.3610 h1         1 YW5       0.065200
     58 H19         -4.2960    39.1170    59.3500 h1         1 YW5       0.065200
     59 H20         -5.0660    40.4600    55.7840 h1         1 YW5       0.102700
     60 H21         -1.4540    44.0740    54.3770 ha         1 YW5       0.128000
     61 H22         -0.1830    45.7330    55.7090 ha         1 YW5       0.113000
     62 H23         -0.2540    45.7080    58.1640 ha         1 YW5       0.111000
     63 H24         -1.5970    44.0210    59.3880 ha         1 YW5       0.116000
     64 H25         -2.1040    39.4540    57.8990 ha         1 YW5       0.134000
     65 H26         -1.7780    35.6730    55.9350 ha         1 YW5       0.135000
     66 H27         -3.8230    36.1770    54.6220 ha         1 YW5       0.122000
     67 H28         -5.0200    38.3080    54.9580 ha         1 YW5       0.126000
     68 H29         -6.4150    38.0370    61.2550 ha         1 YW5       0.122000
     69 H30         -8.2950    39.0760    62.4330 ha         1 YW5       0.120000
     70 H32         -3.3530    41.7760    58.8060 hn         1 YW5       0.359000
     71 H1          -8.4630    42.2330    59.5240 ha         1 YW5       0.140000
@<TRIPOS>BOND
     1     1    11 ar  
     2     1    12 ar  
     3     1    14 1   
     4     2    14 ar  
     5     2    15 ar  
     6     2    71 1   
     7     3    36 1   
     8     3    41 1   
     9     3    42 1   
    10     3    43 1   
    11     4     5 1   
    12     4    36 1   
    13     4    44 1   
    14     4    45 1   
    15     5     6 1   
    16     5    46 1   
    17     5    47 1   
    18     6     7 1   
    19     6     9 1   
    20     6    48 1   
    21     7     8 1   
    22     7    49 1   
    23     7    50 1   
    24     8    36 1   
    25     8    51 1   
    26     8    52 1   
    27     9    10 ar  
    28     9    13 ar  
    29    10    11 ar  
    30    10    53 1   
    31    11    54 1   
    32    12    13 ar  
    33    12    55 1   
    34    13    56 1   
    35    14    34 ar  
    36    15    16 ar  
    37    15    32 1   
    38    16    17 1   
    39    16    33 ar  
    40    17    37 1   
    41    17    57 1   
    42    17    58 1   
    43    18    19 1   
    44    18    26 1   
    45    18    37 1   
    46    18    59 1   
    47    19    38 1   
    48    19    39 2   
    49    20    21 ar  
    50    20    25 ar  
    51    20    38 1   
    52    21    22 ar  
    53    21    39 1   
    54    22    23 ar  
    55    22    60 1   
    56    23    24 ar  
    57    23    61 1   
    58    24    25 ar  
    59    24    62 1   
    60    25    63 1   
    61    26    27 ar  
    62    26    31 ar  
    63    27    28 ar  
    64    27    64 1   
    65    28    29 ar  
    66    28    35 1   
    67    29    30 ar  
    68    29    65 1   
    69    30    31 ar  
    70    30    66 1   
    71    31    67 1   
    72    32    37 1   
    73    32    40 2   
    74    33    34 ar  
    75    33    68 1   
    76    34    69 1   
    77    38    70 1   
@<TRIPOS>SUBSTRUCTURE
     1 YW5         1 TEMP              0 ****  ****    0 ROOT
