@<TRIPOS>MOLECULE
YW6
   14    14     1     0     0
SMALL
No Charge or Current Charge


@<TRIPOS>ATOM
      1 C4          -1.6830    -6.0840    20.6750 c3         1 YW6      -0.162100
      2 C5          -0.8500    -9.3760    19.1810 cc         1 YW6       0.069900
      3 C7          -2.4370    -6.1460    22.0150 c          1 YW6       0.725000
      4 C1          -1.1470    -7.4370    20.2730 cd         1 YW6      -0.060300
      5 C2          -1.6000    -8.2350    19.2000 cd         1 YW6      -0.147000
      6 C3          -0.1270    -8.1410    20.8620 cc         1 YW6       0.059900
      7 O6           0.0680    -9.3350    20.2040 os         1 YW6      -0.272000
      8 O8          -1.7910    -6.0240    23.0460 o          1 YW6      -0.731000
      9 O9          -3.6230    -6.4390    21.9950 o          1 YW6      -0.731000
     10 H4A         -0.8110    -5.4260    20.7700 hc         1 YW6       0.028200
     11 H4B         -2.3690    -5.7700    19.8790 hc         1 YW6       0.028200
     12 H2          -2.4010    -7.9920    18.5100 ha         1 YW6       0.137000
     13 H3           0.5090    -7.9210    21.7090 h4         1 YW6       0.032100
     14 H5          -0.8590   -10.2460    18.5370 h4         1 YW6       0.023100
@<TRIPOS>BOND
     1     1     3 1   
     2     1     4 1   
     3     1    10 1   
     4     1    11 1   
     5     2     5 2   
     6     2     7 1   
     7     2    14 1   
     8     3     8 1   
     9     3     9 1   
    10     4     5 1   
    11     4     6 2   
    12     5    12 1   
    13     6     7 1   
    14     6    13 1   
@<TRIPOS>SUBSTRUCTURE
     1 YW6         1 TEMP              0 ****  ****    0 ROOT
