@<TRIPOS>MOLECULE
YW6
   14    14     1     0     0
SMALL
abcg2


@<TRIPOS>ATOM
      1 C4          -1.4190    -6.1670    20.9700 c3         1 YW6      -0.162100
      2 C5          -1.0340    -9.3170    19.0990 cc         1 YW6       0.069900
      3 C7          -2.6640    -6.1940    21.8960 c          1 YW6       0.725000
      4 C1          -1.0400    -7.4670    20.3520 cd         1 YW6      -0.060300
      5 C2          -1.7730    -8.2200    19.3770 cd         1 YW6      -0.147000
      6 C3           0.0870    -8.1860    20.5750 cc         1 YW6       0.059900
      7 O6           0.1030    -9.3130    19.8250 os         1 YW6      -0.272000
      8 O8          -2.8700    -5.1380    22.5270 o          1 YW6      -0.731000
      9 O9          -3.3480    -7.2320    21.9240 o          1 YW6      -0.731000
     10 H4A         -0.5720    -5.7650    21.5330 hc         1 YW6       0.028200
     11 H4B         -1.6160    -5.4310    20.1820 hc         1 YW6       0.028200
     12 H2          -2.7250    -7.9650    18.9390 ha         1 YW6       0.137000
     13 H3           0.9360    -8.0210    21.2200 h4         1 YW6       0.032100
     14 H5          -1.1840   -10.1550    18.4380 h4         1 YW6       0.023100
@<TRIPOS>BOND
     1     1     3 1   
     2     1     4 1   
     3     1    10 1   
     4     1    11 1   
     5     2     5 2   
     6     2     7 1   
     7     2    14 1   
     8     3     8 1   
     9     3     9 1   
    10     4     5 1   
    11     4     6 2   
    12     5    12 1   
    13     6     7 1   
    14     6    13 1   
@<TRIPOS>SUBSTRUCTURE
     1 YW6         1 TEMP              0 ****  ****    0 ROOT
