@<TRIPOS>MOLECULE
YW7
   75    80     1     0     0
SMALL
No Charge or Current Charge


@<TRIPOS>ATOM
      1 C13        -13.7160   -18.6190   -21.1400 ca         1 YW7      -0.096600
      2 C17        -10.6830   -16.3280   -14.5020 c3         1 YW7      -0.117600
      3 C16        -10.0650   -17.5510   -15.2160 c3         1 YW7       0.229300
      4 C15        -16.3610   -21.2470   -21.9720 cc         1 YW7      -0.180000
      5 C19        -13.3930   -21.6320   -17.2530 c3         1 YW7       0.146600
      6 C20        -14.7530   -21.6840   -16.4620 c6         1 YW7      -0.069700
      7 C21        -15.1390   -20.3070   -15.8350 c6         1 YW7      -0.113400
      8 C22        -16.4430   -20.4170   -15.0090 c6         1 YW7       0.155600
      9 C24        -16.0550   -22.7520   -14.5300 c6         1 YW7       0.155600
     10 C11        -15.3000   -20.5190   -21.2520 ca         1 YW7       0.017000
     11 C12        -14.7320   -19.3450   -21.8090 ca         1 YW7      -0.118000
     12 C34        -12.9780   -22.8950   -18.0330 ca         1 YW7      -0.102300
     13 C1         -10.9400   -16.9930   -17.5660 ca         1 YW7      -0.149000
     14 C2         -10.8880   -17.9070   -16.4780 ca         1 YW7      -0.039300
     15 C3         -11.6330   -19.1100   -16.5690 ca         1 YW7      -0.123000
     16 C4         -12.3570   -19.3640   -17.7440 ca         1 YW7      -0.003200
     17 C5         -12.3860   -18.4900   -18.8300 cp         1 YW7      -0.084000
     18 C6         -11.6900   -17.2660   -18.7300 ca         1 YW7      -0.037000
     19 N7         -13.2260   -20.4130   -18.0870 na         1 YW7      -0.094600
     20 C8         -13.8410   -20.2260   -19.3380 ca         1 YW7       0.001800
     21 C9         -13.2910   -19.0500   -19.8560 cp         1 YW7      -0.039000
     22 C10        -14.8320   -20.9690   -19.9950 ca         1 YW7      -0.116000
     23 C14        -13.0570   -17.4240   -21.7770 c          1 YW7       0.619700
     24 O18        -10.0650   -18.6280   -14.2740 oh         1 YW7      -0.663000
     25 O23        -16.3010   -21.4350   -13.9970 os         1 YW7      -0.447000
     26 C25        -14.7290   -22.7560   -15.3270 c6         1 YW7      -0.113400
     27 N26        -13.8680   -16.5540   -22.4160 nt         1 YW7      -0.608000
     28 O27        -11.8490   -17.2590   -21.8180 o          1 YW7      -0.595100
     29 C28        -16.4350   -22.6110   -22.0220 cd         1 YW7       0.203300
     30 O29        -17.4320   -22.9880   -22.8830 os         1 YW7      -0.071700
     31 N30        -18.0060   -21.8110   -23.4690 nd         1 YW7      -0.366300
     32 C31        -17.3260   -20.8210   -22.9180 cc         1 YW7       0.290300
     33 C32        -17.6260   -19.3830   -23.2420 c3         1 YW7      -0.133400
     34 C35        -11.6390   -22.9970   -18.4680 ca         1 YW7      -0.094500
     35 C36        -11.1970   -24.1200   -19.1860 ca         1 YW7      -0.113500
     36 C37        -12.0890   -25.1620   -19.4800 ca         1 YW7      -0.100000
     37 C38        -13.4240   -25.0760   -19.0560 ca         1 YW7      -0.113500
     38 C39        -13.8690   -23.9500   -18.3420 ca         1 YW7      -0.094500
     39 C40         -8.5860   -17.2830   -15.5810 c3         1 YW7      -0.117600
     40 H46        -10.1330   -16.0840   -13.5850 hc         1 YW7       0.043700
     41 H47        -10.6630   -15.4430   -15.1490 hc         1 YW7       0.043700
     42 H48        -11.7270   -16.5260   -14.2320 hc         1 YW7       0.043700
     43 H50        -12.6390   -21.5580   -16.4640 h1         1 YW7       0.075700
     44 H51        -15.5410   -21.9410   -17.1820 hc         1 YW7       0.053700
     45 H52        -14.3290   -19.9430   -15.1890 hc         1 YW7       0.057450
     46 H53        -15.2830   -19.5510   -16.6180 hc         1 YW7       0.057450
     47 H55        -16.6620   -19.4560   -14.5230 h1         1 YW7       0.044700
     48 H54        -17.2890   -20.6710   -15.6650 h1         1 YW7       0.044700
     49 H56        -16.8940   -23.0470   -15.1780 h1         1 YW7       0.044700
     50 H57        -15.9960   -23.4690   -13.6990 h1         1 YW7       0.044700
     51 H45        -15.0320   -19.0220   -22.8000 ha         1 YW7       0.117000
     52 H65        -15.6220   -24.6080   -22.0350 hc         1 YW7       0.065700
     53 H66        -14.5400   -23.3970   -21.3420 hc         1 YW7       0.065700
     54 H67        -15.9520   -23.9670   -20.4210 hc         1 YW7       0.065700
     55 H41        -10.4090   -16.0470   -17.5070 ha         1 YW7       0.112000
     56 H42        -11.6590   -19.8130   -15.7430 ha         1 YW7       0.135000
     57 H43        -11.7380   -16.5170   -19.5120 ha         1 YW7       0.134000
     58 H44        -15.2620   -21.8430   -19.5210 ha         1 YW7       0.122000
     59 H49         -9.5300   -18.3310   -13.5080 ho         1 YW7       0.445000
     60 H59        -14.5550   -23.7610   -15.7290 hc         1 YW7       0.057450
     61 H58        -13.8970   -22.5540   -14.6380 hc         1 YW7       0.057450
     62 H61        -13.4650   -15.7560   -22.8840 hn         1 YW7       0.315000
     63 H60        -14.8670   -16.6920   -22.3980 hn         1 YW7       0.315000
     64 H62        -18.6750   -19.2600   -23.5370 hc         1 YW7       0.055700
     65 H63        -17.4530   -18.7360   -22.3740 hc         1 YW7       0.055700
     66 H64        -17.0040   -19.0310   -24.0730 hc         1 YW7       0.055700
     67 H68        -10.9340   -22.1970   -18.2480 ha         1 YW7       0.116500
     68 H69        -10.1620   -24.1830   -19.5150 ha         1 YW7       0.115500
     69 H70        -11.7480   -26.0330   -20.0360 ha         1 YW7       0.115000
     70 H71        -14.1180   -25.8820   -19.2860 ha         1 YW7       0.115500
     71 H72        -14.9120   -23.9130   -18.0410 ha         1 YW7       0.116500
     72 H74         -7.9850   -17.0940   -14.6830 hc         1 YW7       0.043700
     73 H73         -8.1550   -18.1460   -16.1040 hc         1 YW7       0.043700
     74 H75         -8.4880   -16.4080   -16.2340 hc         1 YW7       0.043700
     75 C33        -15.5900   -23.7010   -21.4200 c3         1 YW7      -0.141400
@<TRIPOS>BOND
     1     1    11 ar  
     2     1    21 ar  
     3     1    23 1   
     4     2     3 1   
     5     2    40 1   
     6     2    41 1   
     7     2    42 1   
     8     3    14 1   
     9     3    24 1   
    10     3    39 1   
    11     4    10 1   
    12     4    29 2   
    13     4    32 1   
    14     5     6 1   
    15     5    12 1   
    16     5    19 1   
    17     5    43 1   
    18     6     7 1   
    19     6    26 1   
    20     6    44 1   
    21     7     8 1   
    22     7    45 1   
    23     7    46 1   
    24     8    25 1   
    25     8    47 1   
    26     8    48 1   
    27     9    25 1   
    28     9    26 1   
    29     9    49 1   
    30     9    50 1   
    31    10    11 ar  
    32    10    22 ar  
    33    11    51 1   
    34    12    34 ar  
    35    12    38 ar  
    36    13    14 ar  
    37    13    18 ar  
    38    13    55 1   
    39    14    15 ar  
    40    15    16 ar  
    41    15    56 1   
    42    16    17 ar  
    43    16    19 1   
    44    17    18 ar  
    45    17    21 1   
    46    18    57 1   
    47    19    20 1   
    48    20    21 ar  
    49    20    22 ar  
    50    22    58 1   
    51    23    27 1   
    52    23    28 2   
    53    24    59 1   
    54    26    60 1   
    55    26    61 1   
    56    27    62 1   
    57    27    63 1   
    58    29    30 1   
    59    29    75 1   
    60    30    31 1   
    61    31    32 2   
    62    32    33 1   
    63    33    64 1   
    64    33    65 1   
    65    33    66 1   
    66    34    35 ar  
    67    34    67 1   
    68    35    36 ar  
    69    35    68 1   
    70    36    37 ar  
    71    36    69 1   
    72    37    38 ar  
    73    37    70 1   
    74    38    71 1   
    75    39    72 1   
    76    39    73 1   
    77    39    74 1   
    78    52    75 1   
    79    53    75 1   
    80    54    75 1   
@<TRIPOS>SUBSTRUCTURE
     1 YW7         1 TEMP              0 ****  ****    0 ROOT
