@<TRIPOS>MOLECULE
YW7
   75    80     1     0     0
SMALL
abcg2


@<TRIPOS>ATOM
      1 C13        -13.7580   -18.5610   -21.0710 ca         1 YW7      -0.096600
      2 C17        -10.4920   -16.4240   -14.6430 c3         1 YW7      -0.117600
      3 C16         -9.9740   -17.6950   -15.3240 c3         1 YW7       0.229300
      4 C15        -16.2040   -21.2980   -21.9040 cc         1 YW7      -0.180000
      5 C19        -13.4260   -21.5610   -17.1870 c3         1 YW7       0.146600
      6 C20        -14.8490   -21.6240   -16.6180 c6         1 YW7      -0.069700
      7 C21        -15.3090   -20.2630   -16.0940 c6         1 YW7      -0.113400
      8 C22        -16.6680   -20.3840   -15.4230 c6         1 YW7       0.155600
      9 C24        -16.3110   -22.6190   -14.8400 c6         1 YW7       0.155600
     10 C11        -15.2020   -20.5180   -21.1780 ca         1 YW7       0.017000
     11 C12        -14.7080   -19.3260   -21.7260 ca         1 YW7      -0.118000
     12 C34        -12.9150   -22.8200   -17.8720 ca         1 YW7      -0.102300
     13 C1         -10.8370   -17.0780   -17.6140 ca         1 YW7      -0.149000
     14 C2         -10.8210   -17.9960   -16.5490 ca         1 YW7      -0.039300
     15 C3         -11.5880   -19.1460   -16.6300 ca         1 YW7      -0.123000
     16 C4         -12.3590   -19.3590   -17.7720 ca         1 YW7      -0.003200
     17 C5         -12.3690   -18.4500   -18.8460 cp         1 YW7      -0.084000
     18 C6         -11.5900   -17.2940   -18.7470 ca         1 YW7      -0.037000
     19 N7         -13.2100   -20.4080   -18.0520 na         1 YW7      -0.094600
     20 C8         -13.7800   -20.1900   -19.2820 ca         1 YW7       0.001800
     21 C9         -13.2770   -18.9880   -19.8270 cp         1 YW7      -0.039000
     22 C10        -14.7370   -20.9530   -19.9450 ca         1 YW7      -0.116000
     23 C14        -13.2040   -17.3540   -21.7630 c          1 YW7       0.619700
     24 O18        -10.1030   -18.7950   -14.4440 oh         1 YW7      -0.663000
     25 O23        -16.6730   -21.3370   -14.3840 os         1 YW7      -0.447000
     26 C25        -14.9280   -22.6340   -15.4710 c6         1 YW7      -0.113400
     27 N26        -14.1230   -16.5200   -22.2700 nt         1 YW7      -0.608000
     28 O27        -12.0000   -17.1780   -21.8720 o          1 YW7      -0.595100
     29 C28        -16.2480   -22.6440   -22.1040 cd         1 YW7       0.203300
     30 O29        -17.3460   -22.9480   -22.7970 os         1 YW7      -0.071700
     31 N30        -18.0560   -21.8160   -23.0680 nd         1 YW7      -0.366300
     32 C31        -17.3880   -20.8280   -22.5490 cc         1 YW7       0.290300
     33 C32        -17.8920   -19.4330   -22.6490 c3         1 YW7      -0.133400
     34 C35        -11.5390   -22.9370   -18.0700 ca         1 YW7      -0.094500
     35 C36        -11.0000   -24.0430   -18.7080 ca         1 YW7      -0.113500
     36 C37        -11.8340   -25.0610   -19.1570 ca         1 YW7      -0.100000
     37 C38        -13.2020   -24.9580   -18.9610 ca         1 YW7      -0.113500
     38 C39        -13.7380   -23.8440   -18.3250 ca         1 YW7      -0.094500
     39 C40         -8.5060   -17.5260   -15.7240 c3         1 YW7      -0.117600
     40 H46         -9.9000   -16.2010   -13.7520 hc         1 YW7       0.043700
     41 H47        -10.4280   -15.5580   -15.3020 hc         1 YW7       0.043700
     42 H48        -11.5340   -16.5430   -14.3430 hc         1 YW7       0.043700
     43 H50        -12.7740   -21.3990   -16.3270 h1         1 YW7       0.075700
     44 H51        -15.5580   -21.9340   -17.3940 hc         1 YW7       0.053700
     45 H52        -14.5750   -19.8720   -15.3810 hc         1 YW7       0.057450
     46 H53        -15.3910   -19.5340   -16.9030 hc         1 YW7       0.057450
     47 H55        -16.9610   -19.4300   -14.9820 h1         1 YW7       0.044700
     48 H54        -17.4230   -20.6410   -16.1810 h1         1 YW7       0.044700
     49 H56        -17.0470   -22.9890   -15.5700 h1         1 YW7       0.044700
     50 H57        -16.3440   -23.2850   -13.9770 h1         1 YW7       0.044700
     51 H45        -15.0500   -19.0220   -22.7070 ha         1 YW7       0.117000
     52 H65        -15.2360   -24.4720   -22.5310 hc         1 YW7       0.065700
     53 H66        -14.3620   -23.3660   -21.4630 hc         1 YW7       0.065700
     54 H67        -15.7270   -24.2880   -20.8480 hc         1 YW7       0.065700
     55 H41        -10.2450   -16.1730   -17.5550 ha         1 YW7       0.112000
     56 H42        -11.5860   -19.8550   -15.8160 ha         1 YW7       0.135000
     57 H43        -11.5690   -16.5670   -19.5450 ha         1 YW7       0.134000
     58 H44        -15.1410   -21.8540   -19.5090 ha         1 YW7       0.122000
     59 H49         -9.5690   -18.6150   -13.6630 ho         1 YW7       0.445000
     60 H59        -14.7100   -23.6480   -15.8100 hc         1 YW7       0.057450
     61 H58        -14.1750   -22.3850   -14.7140 hc         1 YW7       0.057450
     62 H61        -13.8370   -15.7020   -22.7850 hn         1 YW7       0.315000
     63 H60        -15.1070   -16.6440   -22.1040 hn         1 YW7       0.315000
     64 H62        -18.9190   -19.4190   -23.0110 hc         1 YW7       0.055700
     65 H63        -17.8600   -18.9390   -21.6780 hc         1 YW7       0.055700
     66 H64        -17.2850   -18.8420   -23.3360 hc         1 YW7       0.055700
     67 H68        -10.8790   -22.1540   -17.7150 ha         1 YW7       0.116500
     68 H69         -9.9300   -24.1140   -18.8500 ha         1 YW7       0.115500
     69 H70        -11.4170   -25.9290   -19.6520 ha         1 YW7       0.115000
     70 H71        -13.8620   -25.7440   -19.3050 ha         1 YW7       0.115500
     71 H72        -14.8110   -23.7920   -18.1900 ha         1 YW7       0.116500
     72 H74         -7.8950   -17.3290   -14.8400 hc         1 YW7       0.043700
     73 H73         -8.1290   -18.4290   -16.2070 hc         1 YW7       0.043700
     74 H75         -8.3640   -16.6920   -16.4100 hc         1 YW7       0.043700
     75 C33        -15.3460   -23.7520   -21.7190 c3         1 YW7      -0.141400
@<TRIPOS>BOND
     1     1    11 ar  
     2     1    21 ar  
     3     1    23 1   
     4     2     3 1   
     5     2    40 1   
     6     2    41 1   
     7     2    42 1   
     8     3    14 1   
     9     3    24 1   
    10     3    39 1   
    11     4    10 1   
    12     4    29 2   
    13     4    32 1   
    14     5     6 1   
    15     5    12 1   
    16     5    19 1   
    17     5    43 1   
    18     6     7 1   
    19     6    26 1   
    20     6    44 1   
    21     7     8 1   
    22     7    45 1   
    23     7    46 1   
    24     8    25 1   
    25     8    47 1   
    26     8    48 1   
    27     9    25 1   
    28     9    26 1   
    29     9    49 1   
    30     9    50 1   
    31    10    11 ar  
    32    10    22 ar  
    33    11    51 1   
    34    12    34 ar  
    35    12    38 ar  
    36    13    14 ar  
    37    13    18 ar  
    38    13    55 1   
    39    14    15 ar  
    40    15    16 ar  
    41    15    56 1   
    42    16    17 ar  
    43    16    19 1   
    44    17    18 ar  
    45    17    21 1   
    46    18    57 1   
    47    19    20 1   
    48    20    21 ar  
    49    20    22 ar  
    50    22    58 1   
    51    23    27 1   
    52    23    28 2   
    53    24    59 1   
    54    26    60 1   
    55    26    61 1   
    56    27    62 1   
    57    27    63 1   
    58    29    30 1   
    59    29    75 1   
    60    30    31 1   
    61    31    32 2   
    62    32    33 1   
    63    33    64 1   
    64    33    65 1   
    65    33    66 1   
    66    34    35 ar  
    67    34    67 1   
    68    35    36 ar  
    69    35    68 1   
    70    36    37 ar  
    71    36    69 1   
    72    37    38 ar  
    73    37    70 1   
    74    38    71 1   
    75    39    72 1   
    76    39    73 1   
    77    39    74 1   
    78    52    75 1   
    79    53    75 1   
    80    54    75 1   
@<TRIPOS>SUBSTRUCTURE
     1 YW7         1 TEMP              0 ****  ****    0 ROOT
