@<TRIPOS>MOLECULE
YW9
   27    28     1     0     0
SMALL
No Charge or Current Charge


@<TRIPOS>ATOM
      1 C13         -5.0820    16.4300    30.4850 ca         1 YW9      -0.178000
      2 C14         -6.4580    16.2020    30.6740 ca         1 YW9      -0.056500
      3 C11         -4.2130    15.3530    30.2570 ca         1 YW9       0.302000
      4 C10         -4.7170    14.0450    30.2170 ca         1 YW9      -0.178000
      5 C9          -6.0910    13.8100    30.4050 ca         1 YW9      -0.056500
      6 C8          -6.9660    14.8890    30.6360 ca         1 YW9      -0.039200
      7 C7         -10.1070    14.2580    31.9640 cc         1 YW9      -0.234000
      8 C5          -8.7690    14.4430    32.1370 cd         1 YW9      -0.124300
      9 C6          -7.9280    14.4290    33.3900 c3         1 YW9      -0.028800
     10 C2         -10.3730    14.3740    30.5840 cc         1 YW9       0.256300
     11 C1         -11.7550    14.2280    30.0160 c3         1 YW9      -0.117400
     12 N3          -9.3030    14.6210    29.8520 nd         1 YW9      -0.515800
     13 N4          -8.3270    14.6590    30.8280 na         1 YW9       0.225000
     14 N12         -2.8780    15.5790    30.0730 nv         1 YW9      -1.076000
     15 H1          -4.6970    17.4460    30.5180 ha         1 YW9       0.116500
     16 H2          -7.1280    17.0400    30.8510 ha         1 YW9       0.126000
     17 H3          -4.0480    13.2070    30.0410 ha         1 YW9       0.116500
     18 H4          -6.4770    12.7930    30.3730 ha         1 YW9       0.126000
     19 H5         -10.8490    14.0580    32.7300 ha         1 YW9       0.141000
     20 H6          -7.4250    15.3910    33.5380 hc         1 YW9       0.050367
     21 H7          -8.5440    14.2350    34.2760 hc         1 YW9       0.050367
     22 H8          -7.1590    13.6490    33.3410 hc         1 YW9       0.050367
     23 H9         -11.7520    14.3310    28.9250 hc         1 YW9       0.045033
     24 H10        -12.1710    13.2440    30.2610 hc         1 YW9       0.045033
     25 H11        -12.4240    14.9920    30.4270 hc         1 YW9       0.045033
     26 H12         -2.2750    14.8190    29.7610 hn         1 YW9       0.453500
     27 H13         -2.5350    16.5300    29.9540 hn         1 YW9       0.453500
@<TRIPOS>BOND
     1     1     2 ar  
     2     1     3 ar  
     3     1    15 1   
     4     2     6 ar  
     5     2    16 1   
     6     3     4 ar  
     7     3    14 1   
     8     4     5 ar  
     9     4    17 1   
    10     5     6 ar  
    11     5    18 1   
    12     6    13 1   
    13     7     8 2   
    14     7    10 1   
    15     7    19 1   
    16     8     9 1   
    17     8    13 1   
    18     9    20 1   
    19     9    21 1   
    20     9    22 1   
    21    10    11 1   
    22    10    12 2   
    23    11    23 1   
    24    11    24 1   
    25    11    25 1   
    26    12    13 1   
    27    14    26 1   
    28    14    27 1   
@<TRIPOS>SUBSTRUCTURE
     1 YW9         1 TEMP              0 ****  ****    0 ROOT
