@<TRIPOS>MOLECULE
YW9
   27    28     1     0     0
SMALL
abcg2


@<TRIPOS>ATOM
      1 C13         -5.2360    16.4500    30.0170 ca         1 YW9      -0.178000
      2 C14         -6.5560    16.1620    30.3050 ca         1 YW9      -0.056500
      3 C11         -4.2330    15.4860    30.1900 ca         1 YW9       0.302000
      4 C10         -4.6140    14.2170    30.6450 ca         1 YW9      -0.178000
      5 C9          -5.9390    13.9280    30.9160 ca         1 YW9      -0.056500
      6 C8          -6.9200    14.8990    30.7600 ca         1 YW9      -0.039200
      7 C7         -10.1540    14.0800    32.0100 cc         1 YW9      -0.234000
      8 C5          -8.7960    14.1640    32.2150 cd         1 YW9      -0.124300
      9 C6          -7.9890    13.8830    33.4320 c3         1 YW9      -0.028800
     10 C2         -10.3600    14.5070    30.6840 cc         1 YW9       0.256300
     11 C1         -11.6500    14.6140    29.9460 c3         1 YW9      -0.117400
     12 N3          -9.2140    14.8280    30.1150 nd         1 YW9      -0.515800
     13 N4          -8.2740    14.6120    31.0470 na         1 YW9       0.225000
     14 N12         -2.9120    15.7930    29.9680 nv         1 YW9      -1.076000
     15 H1          -4.9710    17.4390    29.6620 ha         1 YW9       0.116500
     16 H2          -7.3110    16.9260    30.1740 ha         1 YW9       0.126000
     17 H3          -3.8640    13.4460    30.7760 ha         1 YW9       0.116500
     18 H4          -6.2080    12.9310    31.2420 ha         1 YW9       0.126000
     19 H5         -10.8950    13.7610    32.7250 ha         1 YW9       0.141000
     20 H6          -7.2570    14.6680    33.6220 hc         1 YW9       0.050367
     21 H7          -8.6460    13.8190    34.2970 hc         1 YW9       0.050367
     22 H8          -7.4470    12.9400    33.3600 hc         1 YW9       0.050367
     23 H9         -11.4920    14.9840    28.9340 hc         1 YW9       0.045033
     24 H10        -12.1490    13.6460    29.8770 hc         1 YW9       0.045033
     25 H11        -12.3380    15.2940    30.4500 hc         1 YW9       0.045033
     26 H12         -2.2960    15.0140    29.7980 hn         1 YW9       0.453500
     27 H13         -2.7310    16.5640    29.3460 hn         1 YW9       0.453500
@<TRIPOS>BOND
     1     1     2 ar  
     2     1     3 ar  
     3     1    15 1   
     4     2     6 ar  
     5     2    16 1   
     6     3     4 ar  
     7     3    14 1   
     8     4     5 ar  
     9     4    17 1   
    10     5     6 ar  
    11     5    18 1   
    12     6    13 1   
    13     7     8 2   
    14     7    10 1   
    15     7    19 1   
    16     8     9 1   
    17     8    13 1   
    18     9    20 1   
    19     9    21 1   
    20     9    22 1   
    21    10    11 1   
    22    10    12 2   
    23    11    23 1   
    24    11    24 1   
    25    11    25 1   
    26    12    13 1   
    27    14    26 1   
    28    14    27 1   
@<TRIPOS>SUBSTRUCTURE
     1 YW9         1 TEMP              0 ****  ****    0 ROOT
