@<TRIPOS>MOLECULE
YWA
   70    75     1     0     0
SMALL
No Charge or Current Charge


@<TRIPOS>ATOM
      1 C18        -15.9580    -7.7890     3.7630 c3         1 YWA       0.146600
      2 C16        -17.7790    -2.1810     4.1440 c3         1 YWA      -0.099100
      3 C19        -14.5640    -7.5540     3.0740 c6         1 YWA      -0.069700
      4 C20        -16.5820    -9.1900     3.6240 ca         1 YWA      -0.107300
      5 C21        -17.9690    -9.3250     3.8500 ca         1 YWA      -0.094500
      6 C22        -18.5960   -10.5790     3.7560 ca         1 YWA      -0.110500
      7 C23        -17.8430   -11.7190     3.4360 ca         1 YWA      -0.097000
      8 C24        -16.4630   -11.6020     3.2110 ca         1 YWA      -0.110500
      9 C11        -14.3490    -9.6270     7.6490 ca         1 YWA      -0.052000
     10 C12        -14.8990    -8.9210     8.7600 ca         1 YWA       0.313900
     11 C34        -12.6620    -5.9000     2.6020 c6         1 YWA       0.154600
     12 C33        -13.9950    -6.1280     3.3540 c6         1 YWA      -0.112900
     13 C1         -18.1300    -4.2810     7.0450 ca         1 YWA      -0.145000
     14 C2         -18.1250    -4.2110     5.6180 ca         1 YWA      -0.071300
     15 C3         -17.4280    -5.2090     4.8870 ca         1 YWA      -0.141000
     16 C4         -16.7790    -6.2270     5.5970 ca         1 YWA       0.007800
     17 C5         -16.7810    -6.2900     6.9870 cp         1 YWA      -0.196500
     18 C6         -17.4600    -5.3150     7.7350 ca         1 YWA      -0.030000
     19 N7         -16.0100    -7.3300     5.1720 na         1 YWA      -0.088600
     20 C8         -15.4970    -8.0720     6.2540 ca         1 YWA      -0.041200
     21 C9         -15.9900    -7.4440     7.3930 cp         1 YWA       0.350500
     22 C10        -14.6510    -9.1810     6.3400 ca         1 YWA      -0.076000
     23 N13        -15.7100    -7.8350     8.6480 nb         1 YWA      -0.618000
     24 C14        -13.4760   -10.7870     7.8590 cc         1 YWA      -0.141000
     25 O17        -19.6490    -3.6620     3.8230 oh         1 YWA      -0.656000
     26 C25        -15.8340   -10.3490     3.3080 ca         1 YWA      -0.094500
     27 C26        -13.5790   -11.9830     7.2000 cd         1 YWA       0.223300
     28 N27        -12.6410   -12.8500     7.7260 nd         1 YWA      -0.362000
     29 N28        -11.9800   -12.2520     8.6870 nc         1 YWA      -0.199800
     30 N29        -12.4910   -10.9920     8.7930 na         1 YWA       0.136800
     31 C30        -11.9530   -10.0420     9.7770 c3         1 YWA       0.061900
     32 C31        -14.5280   -12.4100     6.1110 c3         1 YWA      -0.111400
     33 C32        -19.7670    -2.2000     5.7060 c3         1 YWA      -0.099100
     34 O35        -12.8490    -6.1270     1.1900 os         1 YWA      -0.445000
     35 C36        -13.2640    -7.4700     0.8680 c6         1 YWA       0.154600
     36 C37        -14.6290    -7.7700     1.5300 c6         1 YWA      -0.112900
     37 H47        -16.6390    -7.1330     3.2090 h1         1 YWA       0.072700
     38 H44        -17.1140    -1.7220     4.8850 hc         1 YWA       0.045533
     39 H45        -17.1610    -2.7610     3.4480 hc         1 YWA       0.045533
     40 H43        -18.2620    -1.3770     3.5750 hc         1 YWA       0.045533
     41 H48        -13.8600    -8.2760     3.5080 hc         1 YWA       0.054700
     42 H49        -18.5650    -8.4510     4.1040 ha         1 YWA       0.114000
     43 H50        -19.6660   -10.6660     3.9340 ha         1 YWA       0.117500
     44 H51        -18.3280   -12.6900     3.3630 ha         1 YWA       0.117000
     45 H52        -15.8780   -12.4850     2.9660 ha         1 YWA       0.117500
     46 H42        -14.6870    -9.2440     9.7780 h4         1 YWA       0.020100
     47 H65        -11.8870    -6.5820     2.9810 h1         1 YWA       0.045700
     48 H66        -12.3150    -4.8680     2.7560 h1         1 YWA       0.045700
     49 H63        -13.8210    -5.9830     4.4290 hc         1 YWA       0.057200
     50 H64        -14.7210    -5.3620     3.0480 hc         1 YWA       0.057200
     51 H38        -18.6420    -3.5310     7.6410 ha         1 YWA       0.116000
     52 H39        -17.3940    -5.1770     3.8020 ha         1 YWA       0.128000
     53 H40        -17.4630    -5.3520     8.8230 ha         1 YWA       0.131000
     54 H41        -14.2360    -9.6600     5.4600 ha         1 YWA       0.132000
     55 H46        -20.1780    -4.3630     4.2610 ho         1 YWA       0.442000
     56 H53        -14.7620   -10.2970     3.1390 ha         1 YWA       0.114000
     57 H55        -10.9090   -10.2900    10.0010 h1         1 YWA       0.065700
     58 H54        -12.0000    -9.0250     9.3710 h1         1 YWA       0.065700
     59 H56        -12.5440   -10.0970    10.6990 h1         1 YWA       0.065700
     60 H59        -14.6970   -13.4930     6.1350 hc         1 YWA       0.048700
     61 H57        -15.5040   -11.9220     6.2190 hc         1 YWA       0.048700
     62 H58        -14.1260   -12.1550     5.1250 hc         1 YWA       0.048700
     63 H60        -19.1900    -1.6280     6.4430 hc         1 YWA       0.045533
     64 H62        -20.3110    -1.4790     5.0850 hc         1 YWA       0.045533
     65 H61        -20.5060    -2.8120     6.2370 hc         1 YWA       0.045533
     66 H68        -13.3460    -7.5670    -0.2240 h1         1 YWA       0.045700
     67 H67        -12.5020    -8.1820     1.2180 h1         1 YWA       0.045700
     68 H70        -15.3930    -7.1130     1.0910 hc         1 YWA       0.057200
     69 H69        -14.9290    -8.7960     1.2830 hc         1 YWA       0.057200
     70 C15        -18.8310    -3.0770     4.8400 c3         1 YWA       0.227300
@<TRIPOS>BOND
     1     1     3 1   
     2     1     4 1   
     3     1    19 1   
     4     1    37 1   
     5     2    38 1   
     6     2    39 1   
     7     2    40 1   
     8     2    70 1   
     9     3    12 1   
    10     3    36 1   
    11     3    41 1   
    12     4     5 ar  
    13     4    26 ar  
    14     5     6 ar  
    15     5    42 1   
    16     6     7 ar  
    17     6    43 1   
    18     7     8 ar  
    19     7    44 1   
    20     8    26 ar  
    21     8    45 1   
    22     9    10 ar  
    23     9    22 ar  
    24     9    24 1   
    25    10    23 ar  
    26    10    46 1   
    27    11    12 1   
    28    11    34 1   
    29    11    47 1   
    30    11    48 1   
    31    12    49 1   
    32    12    50 1   
    33    13    14 ar  
    34    13    18 ar  
    35    13    51 1   
    36    14    15 ar  
    37    14    70 1   
    38    15    16 ar  
    39    15    52 1   
    40    16    17 ar  
    41    16    19 1   
    42    17    18 ar  
    43    17    21 1   
    44    18    53 1   
    45    19    20 1   
    46    20    21 ar  
    47    20    22 ar  
    48    21    23 ar  
    49    22    54 1   
    50    24    27 2   
    51    24    30 1   
    52    25    55 1   
    53    25    70 1   
    54    26    56 1   
    55    27    28 1   
    56    27    32 1   
    57    28    29 2   
    58    29    30 1   
    59    30    31 1   
    60    31    57 1   
    61    31    58 1   
    62    31    59 1   
    63    32    60 1   
    64    32    61 1   
    65    32    62 1   
    66    33    63 1   
    67    33    64 1   
    68    33    65 1   
    69    33    70 1   
    70    34    35 1   
    71    35    36 1   
    72    35    66 1   
    73    35    67 1   
    74    36    68 1   
    75    36    69 1   
@<TRIPOS>SUBSTRUCTURE
     1 YWA         1 TEMP              0 ****  ****    0 ROOT
