@<TRIPOS>MOLECULE
YWA
   70    75     1     0     0
SMALL
bcc


@<TRIPOS>ATOM
      1 C18        -15.9730    -7.7790     3.7490 c3         1 YWA       0.117300
      2 C16        -17.9760    -1.8310     4.8500 c3         1 YWA      -0.099100
      3 C19        -14.5580    -7.7110     3.1620 c6         1 YWA      -0.069700
      4 C20        -16.6990    -9.1080     3.6150 ca         1 YWA      -0.107300
      5 C21        -18.0830    -9.1130     3.7910 ca         1 YWA      -0.112500
      6 C22        -18.8090   -10.2900     3.7160 ca         1 YWA      -0.128500
      7 C23        -18.1600   -11.4920     3.4590 ca         1 YWA      -0.115000
      8 C24        -16.7860   -11.5000     3.2790 ca         1 YWA      -0.128500
      9 C11        -14.2960    -9.5070     7.5890 ca         1 YWA      -0.117300
     10 C12        -14.7060    -8.7470     8.6970 ca         1 YWA       0.379200
     11 C34        -12.5310    -6.2900     2.7910 c6         1 YWA       0.131400
     12 C33        -13.8710    -6.3880     3.5020 c6         1 YWA      -0.112900
     13 C1         -17.9010    -4.1450     6.9510 ca         1 YWA      -0.163000
     14 C2         -18.0100    -4.2190     5.5480 ca         1 YWA      -0.071300
     15 C3         -17.4010    -5.2580     4.8640 ca         1 YWA      -0.159000
     16 C4         -16.7020    -6.2210     5.5900 ca         1 YWA       0.007800
     17 C5         -16.5980    -6.1450     6.9890 cp         1 YWA      -0.196500
     18 C6         -17.2040    -5.0920     7.6710 ca         1 YWA      -0.048000
     19 N7         -16.0260    -7.3370     5.1360 na         1 YWA      -0.059300
     20 C8         -15.4830    -7.9830     6.2170 ca         1 YWA      -0.106500
     21 C9         -15.8170    -7.2770     7.3940 cp         1 YWA       0.415800
     22 C10        -14.6960    -9.1190     6.3130 ca         1 YWA      -0.094000
     23 N13        -15.4410    -7.6530     8.6090 nb         1 YWA      -0.618000
     24 C14        -13.4830   -10.7090     7.7510 cc         1 YWA      -0.155600
     25 O17        -18.8780    -3.4540     3.4130 oh         1 YWA      -0.593800
     26 C25        -16.0610   -10.3160     3.3560 ca         1 YWA      -0.112500
     27 C26        -13.5970   -11.9540     7.1650 cd         1 YWA       0.288600
     28 N27        -12.6070   -12.7270     7.6500 nd         1 YWA      -0.362000
     29 N28        -11.8950   -12.0450     8.4810 nc         1 YWA      -0.199800
     30 N29        -12.4030   -10.8310     8.5570 na         1 YWA       0.115400
     31 C30        -11.7820    -9.8490     9.4190 c3         1 YWA       0.032600
     32 C31        -14.5950   -12.4480     6.1790 c3         1 YWA      -0.111400
     33 C32        -20.1670    -2.9340     5.3770 c3         1 YWA      -0.099100
     34 O35        -12.6540    -6.4280     1.3940 os         1 YWA      -0.398600
     35 C36        -13.2200    -7.6690     1.0380 c6         1 YWA       0.131400
     36 C37        -14.6030    -7.8600     1.6400 c6         1 YWA      -0.112900
     37 H47        -16.5610    -7.0450     3.1930 h1         1 YWA       0.072700
     38 H44        -17.8420    -1.5110     5.8830 hc         1 YWA       0.045533
     39 H45        -16.9870    -1.9510     4.4050 hc         1 YWA       0.045533
     40 H43        -18.5010    -1.0360     4.3170 hc         1 YWA       0.045533
     41 H48        -13.9370    -8.5180     3.5700 hc         1 YWA       0.054700
     42 H49        -18.6000    -8.1810     3.9890 ha         1 YWA       0.132000
     43 H50        -19.8830   -10.2700     3.8530 ha         1 YWA       0.135500
     44 H51        -18.7240   -12.4140     3.3970 ha         1 YWA       0.135000
     45 H52        -16.2680   -12.4290     3.0780 ha         1 YWA       0.135500
     46 H42        -14.4330    -9.0590     9.6990 h4         1 YWA       0.020100
     47 H65        -11.8510    -7.0570     3.1930 h1         1 YWA       0.045700
     48 H66        -12.0710    -5.3180     2.9770 h1         1 YWA       0.045700
     49 H63        -13.6990    -6.2950     4.5770 hc         1 YWA       0.057200
     50 H64        -14.5090    -5.5490     3.2040 hc         1 YWA       0.057200
     51 H38        -18.3660    -3.3260     7.4840 ha         1 YWA       0.134000
     52 H39        -17.4620    -5.3090     3.7850 ha         1 YWA       0.146000
     53 H40        -17.1290    -5.0190     8.7480 ha         1 YWA       0.149000
     54 H41        -14.3770    -9.6810     5.4480 ha         1 YWA       0.150000
     55 H46        -19.4870    -4.1960     3.3160 ho         1 YWA       0.403000
     56 H53        -14.9890   -10.3580     3.2100 ha         1 YWA       0.132000
     57 H55        -10.7420   -10.1270     9.5550 h1         1 YWA       0.065700
     58 H54        -11.8300    -8.8670     8.9550 h1         1 YWA       0.065700
     59 H56        -12.2740    -9.8130    10.3890 h1         1 YWA       0.065700
     60 H59        -14.6550   -13.5350     6.2150 hc         1 YWA       0.048700
     61 H57        -15.5870   -12.0450     6.3800 hc         1 YWA       0.048700
     62 H58        -14.3320   -12.1670     5.1580 hc         1 YWA       0.048700
     63 H60        -20.1300    -2.6080     6.4160 hc         1 YWA       0.045533
     64 H62        -20.7030    -2.1710     4.8110 hc         1 YWA       0.045533
     65 H61        -20.7470    -3.8590     5.3400 hc         1 YWA       0.045533
     66 H68        -13.2720    -7.6950    -0.0510 h1         1 YWA       0.045700
     67 H67        -12.5650    -8.4940     1.3560 h1         1 YWA       0.045700
     68 H70        -15.2880    -7.1130     1.2250 hc         1 YWA       0.057200
     69 H69        -14.9850    -8.8390     1.3440 hc         1 YWA       0.057200
     70 C15        -18.7700    -3.1340     4.7860 c3         1 YWA       0.204100
@<TRIPOS>BOND
     1     1     3 1   
     2     1     4 1   
     3     1    19 1   
     4     1    37 1   
     5     2    38 1   
     6     2    39 1   
     7     2    40 1   
     8     2    70 1   
     9     3    12 1   
    10     3    36 1   
    11     3    41 1   
    12     4     5 ar  
    13     4    26 ar  
    14     5     6 ar  
    15     5    42 1   
    16     6     7 ar  
    17     6    43 1   
    18     7     8 ar  
    19     7    44 1   
    20     8    26 ar  
    21     8    45 1   
    22     9    10 ar  
    23     9    22 ar  
    24     9    24 1   
    25    10    23 ar  
    26    10    46 1   
    27    11    12 1   
    28    11    34 1   
    29    11    47 1   
    30    11    48 1   
    31    12    49 1   
    32    12    50 1   
    33    13    14 ar  
    34    13    18 ar  
    35    13    51 1   
    36    14    15 ar  
    37    14    70 1   
    38    15    16 ar  
    39    15    52 1   
    40    16    17 ar  
    41    16    19 1   
    42    17    18 ar  
    43    17    21 1   
    44    18    53 1   
    45    19    20 1   
    46    20    21 ar  
    47    20    22 ar  
    48    21    23 ar  
    49    22    54 1   
    50    24    27 2   
    51    24    30 1   
    52    25    55 1   
    53    25    70 1   
    54    26    56 1   
    55    27    28 1   
    56    27    32 1   
    57    28    29 2   
    58    29    30 1   
    59    30    31 1   
    60    31    57 1   
    61    31    58 1   
    62    31    59 1   
    63    32    60 1   
    64    32    61 1   
    65    32    62 1   
    66    33    63 1   
    67    33    64 1   
    68    33    65 1   
    69    33    70 1   
    70    34    35 1   
    71    35    36 1   
    72    35    66 1   
    73    35    67 1   
    74    36    68 1   
    75    36    69 1   
@<TRIPOS>SUBSTRUCTURE
     1 YWA         1 TEMP              0 ****  ****    0 ROOT
