@<TRIPOS>MOLECULE
YWD
   16    15     1     0     0
SMALL
No Charge or Current Charge


@<TRIPOS>ATOM
      1 C10         27.2010    -5.1950    26.9920 c3         1 YWD       0.245700
      2 C01         26.2720    -8.8070    29.1810 c          1 YWD       0.727000
      3 C05         25.1850    -7.7890    28.8170 c3         1 YWD      -0.213400
      4 C08         25.8170    -6.4040    28.5910 c3         1 YWD       0.179600
      5 C11         28.3830    -4.9490    27.8370 c1         1 YWD      -0.151100
      6 C12         29.3380    -4.7300    28.5490 c1         1 YWD      -0.264000
      7 O03         26.6020    -8.8960    30.3550 o          1 YWD      -0.737500
      8 O09         26.5720    -6.4370    27.3670 os         1 YWD      -0.420000
      9 H102        27.5310    -5.2440    25.9460 h1         1 YWD       0.036200
     10 H101        26.5010    -4.3540    27.0830 h1         1 YWD       0.036200
     11 H051        24.6740    -8.0620    27.8850 hc         1 YWD       0.023700
     12 H052        24.5050    -7.6450    29.6650 hc         1 YWD       0.023700
     13 H082        26.4540    -6.1450    29.4480 h1         1 YWD       0.005700
     14 H081        25.0180    -5.6550    28.5200 h1         1 YWD       0.005700
     15 H121        30.1830    -4.5490    29.1850 ha         1 YWD       0.241000
     16 OXT         26.7530    -9.4950    28.2920 o          1 YWD      -0.737500
@<TRIPOS>BOND
     1     1     5 1   
     2     1     8 1   
     3     1     9 1   
     4     1    10 1   
     5     2     3 1   
     6     2     7 1   
     7     2    16 1   
     8     3     4 1   
     9     3    11 1   
    10     3    12 1   
    11     4     8 1   
    12     4    13 1   
    13     4    14 1   
    14     5     6 3   
    15     6    15 1   
@<TRIPOS>SUBSTRUCTURE
     1 YWD         1 TEMP              0 ****  ****    0 ROOT
