@<TRIPOS>MOLECULE
YWD
   16    15     1     0     0
SMALL
abcg2


@<TRIPOS>ATOM
      1 C10         27.2950    -5.2830    27.0270 c3         1 YWD       0.245700
      2 C01         26.1550    -8.9440    29.0480 c          1 YWD       0.727000
      3 C05         25.2270    -7.7370    28.7880 c3         1 YWD      -0.213400
      4 C08         25.9390    -6.4220    28.5830 c3         1 YWD       0.179600
      5 C11         28.3450    -4.8320    27.9460 c1         1 YWD      -0.151100
      6 C12         29.2020    -4.4650    28.7050 c1         1 YWD      -0.264000
      7 O03         27.1830    -8.7260    29.7190 o          1 YWD      -0.737500
      8 O09         26.7140    -6.4990    27.3990 os         1 YWD      -0.420000
      9 H102        27.7260    -5.4180    26.0320 h1         1 YWD       0.036200
     10 H101        26.5420    -4.4860    26.9400 h1         1 YWD       0.036200
     11 H051        24.5610    -7.9380    27.9450 hc         1 YWD       0.023700
     12 H052        24.5760    -7.6210    29.6630 hc         1 YWD       0.023700
     13 H082        26.5750    -6.2010    29.4480 h1         1 YWD       0.005700
     14 H081        25.2120    -5.6020    28.4960 h1         1 YWD       0.005700
     15 H121        29.9620    -4.1410    29.3790 ha         1 YWD       0.241000
     16 OXT         25.7750   -10.0420    28.5960 o          1 YWD      -0.737500
@<TRIPOS>BOND
     1     1     5 1   
     2     1     8 1   
     3     1     9 1   
     4     1    10 1   
     5     2     3 1   
     6     2     7 1   
     7     2    16 1   
     8     3     4 1   
     9     3    11 1   
    10     3    12 1   
    11     4     8 1   
    12     4    13 1   
    13     4    14 1   
    14     5     6 3   
    15     6    15 1   
@<TRIPOS>SUBSTRUCTURE
     1 YWD         1 TEMP              0 ****  ****    0 ROOT
