@<TRIPOS>MOLECULE
YWE
   50    53     1     0     0
SMALL
No Charge or Current Charge


@<TRIPOS>ATOM
      1 C11        -16.6330    33.5650    21.5310 c5         1 YWE       0.183000
      2 C12        -18.0100    34.2310    21.9010 c5         1 YWE      -0.097400
      3 C13        -18.6340    33.3000    23.0020 c5         1 YWE      -0.041100
      4 C14        -18.0590    31.9500    22.6140 ca         1 YWE      -0.027300
      5 C15        -18.5070    30.6470    22.9780 ca         1 YWE      -0.171600
      6 C16        -17.8110    29.5380    22.4330 ca         1 YWE      -0.027000
      7 N02        -11.7360    37.2010    18.8340 na         1 YWE      -0.055700
      8 C03        -11.5910    35.8800    18.4760 cc         1 YWE       0.411400
      9 N04        -12.7730    35.4160    18.1110 nd         1 YWE      -0.681000
     10 C05        -13.6220    36.5010    18.2780 cd         1 YWE       0.493300
     11 C06        -15.1140    36.4600    17.9650 c3         1 YWE       0.173300
     12 O07        -15.7500    35.2690    18.4970 os         1 YWE      -0.441100
     13 C08        -15.8300    35.1310    19.8500 c          1 YWE       0.647100
     14 O09        -15.4620    35.9540    20.6750 o          1 YWE      -0.531000
     15 N10        -16.4200    33.9290    20.1300 ns         1 YWE      -0.495900
     16 C17        -16.6960    29.7190    21.5940 ca         1 YWE      -0.168000
     17 C18        -16.2620    31.0110    21.2740 ca         1 YWE       0.229000
     18 F19        -15.1810    31.1790    20.4810 f          1 YWE      -0.155000
     19 C20        -16.9620    32.1150    21.7790 ca         1 YWE      -0.171300
     20 C21        -19.6770    30.3620    23.9070 c          1 YWE       0.626700
     21 O22        -20.2200    29.2630    23.9090 o          1 YWE      -0.567100
     22 N23        -20.0790    31.3990    24.7380 ns         1 YWE      -0.148000
     23 C24        -21.1310    31.5210    25.6880 ca         1 YWE      -0.026000
     24 C25        -21.1750    32.7020    26.4550 ca         1 YWE      -0.141000
     25 C26        -22.1860    32.9000    27.4120 ca         1 YWE      -0.116000
     26 C27        -23.1660    31.9160    27.6080 ca         1 YWE       0.153000
     27 F28        -24.1360    32.1160    28.5300 f          1 YWE      -0.161000
     28 C29        -23.1380    30.7340    26.8460 ca         1 YWE       0.093000
     29 Cl30       -24.3660    29.4880    27.0730 cl         1 YWE      -0.164000
     30 C31        -22.1270    30.5360    25.8890 ca         1 YWE      -0.100000
     31 N32        -13.0250    37.6080    18.7040 nc         1 YWE      -0.517800
     32 H1         -15.8220    33.8920    22.1990 h1         1 YWE       0.100700
     33 H2         -17.8940    35.2650    22.2450 hc         1 YWE       0.059200
     34 H3         -18.6830    34.2610    21.0350 hc         1 YWE       0.059200
     35 H4         -18.3130    33.6030    24.0050 hc         1 YWE       0.061700
     36 H5         -19.7290    33.3390    22.9670 hc         1 YWE       0.061700
     37 H6         -18.1200    28.5220    22.6760 ha         1 YWE       0.138000
     38 H7         -10.6040    38.9660    18.6040 h1         1 YWE       0.060033
     39 H8         -10.9460    38.4990    20.2970 h1         1 YWE       0.060033
     40 H9          -9.7250    37.6000    19.3500 h1         1 YWE       0.060033
     41 H11        -15.5900    37.3650    18.3640 h1         1 YWE       0.076200
     42 H12        -15.2260    36.4880    16.8740 h1         1 YWE       0.076200
     43 H13        -16.6730    33.3480    19.3430 hn         1 YWE       0.330500
     44 H14        -16.1640    28.8580    21.1990 ha         1 YWE       0.141000
     45 H15        -19.5080    32.2280    24.6590 hn         1 YWE       0.158000
     46 H16        -20.4200    33.4740    26.3120 ha         1 YWE       0.118000
     47 H17        -22.2120    33.8140    28.0010 ha         1 YWE       0.136000
     48 H18        -22.1420    29.6170    25.3140 ha         1 YWE       0.161000
     49 H10        -10.6460    35.3500    18.4980 h5         1 YWE       0.063100
     50 C01        -10.6880    38.1220    19.3000 c3         1 YWE       0.073900
@<TRIPOS>BOND
     1     1     2 1   
     2     1    15 1   
     3     1    19 1   
     4     1    32 1   
     5     2     3 1   
     6     2    33 1   
     7     2    34 1   
     8     3     4 1   
     9     3    35 1   
    10     3    36 1   
    11     4     5 ar  
    12     4    19 ar  
    13     5     6 ar  
    14     5    20 1   
    15     6    16 ar  
    16     6    37 1   
    17     7     8 1   
    18     7    31 1   
    19     7    50 1   
    20     8     9 2   
    21     8    49 1   
    22     9    10 1   
    23    10    11 1   
    24    10    31 2   
    25    11    12 1   
    26    11    41 1   
    27    11    42 1   
    28    12    13 1   
    29    13    14 2   
    30    13    15 1   
    31    15    43 1   
    32    16    17 ar  
    33    16    44 1   
    34    17    18 1   
    35    17    19 ar  
    36    20    21 2   
    37    20    22 1   
    38    22    23 1   
    39    22    45 1   
    40    23    24 ar  
    41    23    30 ar  
    42    24    25 ar  
    43    24    46 1   
    44    25    26 ar  
    45    25    47 1   
    46    26    27 1   
    47    26    28 ar  
    48    28    29 1   
    49    28    30 ar  
    50    30    48 1   
    51    38    50 1   
    52    39    50 1   
    53    40    50 1   
@<TRIPOS>SUBSTRUCTURE
     1 YWE         1 TEMP              0 ****  ****    0 ROOT
