@<TRIPOS>MOLECULE
YWE
   50    53     1     0     0
SMALL
abcg2


@<TRIPOS>ATOM
      1 C11        -17.2650    34.3700    21.5520 c5         1 YWE       0.183000
      2 C12        -18.7700    34.5760    21.8010 c5         1 YWE      -0.097400
      3 C13        -19.1340    33.6260    22.9450 c5         1 YWE      -0.041100
      4 C14        -18.1190    32.5190    22.8150 ca         1 YWE      -0.027300
      5 C15        -18.1390    31.2220    23.3240 ca         1 YWE      -0.171600
      6 C16        -17.0690    30.3740    23.0330 ca         1 YWE      -0.027000
      7 N02        -11.5660    36.3660    18.5320 na         1 YWE      -0.055700
      8 C03        -11.8100    35.0810    18.2720 cc         1 YWE       0.411400
      9 N04        -13.0860    34.9060    18.0080 nd         1 YWE      -0.681000
     10 C05        -13.5900    36.1510    18.1330 cd         1 YWE       0.493300
     11 C06        -15.0200    36.4870    17.8840 c3         1 YWE       0.173300
     12 O07        -15.9070    35.5340    18.4500 os         1 YWE      -0.441100
     13 C08        -15.9900    35.5040    19.7880 c          1 YWE       0.647100
     14 O09        -15.3330    36.2130    20.5190 o          1 YWE      -0.531000
     15 N10        -16.8980    34.5920    20.1790 ns         1 YWE      -0.495900
     16 C17        -15.9820    30.8140    22.2970 ca         1 YWE      -0.168000
     17 C18        -15.9880    32.1100    21.8090 ca         1 YWE       0.229000
     18 F19        -14.9380    32.5380    21.0980 f          1 YWE      -0.155000
     19 C20        -17.0520    32.9560    22.0350 ca         1 YWE      -0.171300
     20 C21        -19.2950    30.6520    24.0770 c          1 YWE       0.626700
     21 O22        -19.6880    29.5190    23.8710 o          1 YWE      -0.567100
     22 N23        -19.8480    31.4880    24.9950 ns         1 YWE      -0.148000
     23 C24        -20.9990    31.2890    25.7630 ca         1 YWE      -0.026000
     24 C25        -21.1690    32.0900    26.8930 ca         1 YWE      -0.141000
     25 C26        -22.3100    31.9940    27.6680 ca         1 YWE      -0.116000
     26 C27        -23.2910    31.0890    27.3200 ca         1 YWE       0.153000
     27 F28        -24.4000    30.9860    28.0570 f          1 YWE      -0.161000
     28 C29        -23.1350    30.2850    26.2050 ca         1 YWE       0.093000
     29 CL30       -24.3820    29.1730    25.7880 cl         1 YWE      -0.164000
     30 C31        -21.9950    30.3740    25.4220 ca         1 YWE      -0.100000
     31 N32        -12.7020    37.0630    18.4530 nc         1 YWE      -0.517800
     32 H1         -16.6800    35.0580    22.1660 h1         1 YWE       0.100700
     33 H2         -19.0120    35.6150    22.0140 hc         1 YWE       0.059200
     34 H3         -19.3170    34.2840    20.9010 hc         1 YWE       0.059200
     35 H4         -19.0200    34.1310    23.9090 hc         1 YWE       0.061700
     36 H5         -20.1650    33.2770    22.8880 hc         1 YWE       0.061700
     37 H6         -17.0770    29.3550    23.3980 ha         1 YWE       0.138000
     38 H7         -10.0860    37.7830    18.1540 h1         1 YWE       0.060033
     39 H8         -10.3780    37.4370    19.8710 h1         1 YWE       0.060033
     40 H9          -9.5290    36.2570    18.8590 h1         1 YWE       0.060033
     41 H11        -15.2300    37.4980    18.2390 h1         1 YWE       0.076200
     42 H12        -15.2320    36.4570    16.8150 h1         1 YWE       0.076200
     43 H13        -17.4010    34.0760    19.4720 hn         1 YWE       0.330500
     44 H14        -15.1460    30.1580    22.0970 ha         1 YWE       0.141000
     45 H15        -19.3340    32.3290    25.2120 hn         1 YWE       0.158000
     46 H16        -20.4020    32.8040    27.1690 ha         1 YWE       0.118000
     47 H17        -22.4360    32.6200    28.5410 ha         1 YWE       0.136000
     48 H18        -21.9080    29.7420    24.5530 ha         1 YWE       0.161000
     49 H10        -11.0410    34.3230    18.2820 h5         1 YWE       0.063100
     50 C01        -10.3180    37.0030    18.8750 c3         1 YWE       0.073900
@<TRIPOS>BOND
     1     1     2 1   
     2     1    15 1   
     3     1    19 1   
     4     1    32 1   
     5     2     3 1   
     6     2    33 1   
     7     2    34 1   
     8     3     4 1   
     9     3    35 1   
    10     3    36 1   
    11     4     5 ar  
    12     4    19 ar  
    13     5     6 ar  
    14     5    20 1   
    15     6    16 ar  
    16     6    37 1   
    17     7     8 1   
    18     7    31 1   
    19     7    50 1   
    20     8     9 2   
    21     8    49 1   
    22     9    10 1   
    23    10    11 1   
    24    10    31 2   
    25    11    12 1   
    26    11    41 1   
    27    11    42 1   
    28    12    13 1   
    29    13    14 2   
    30    13    15 1   
    31    15    43 1   
    32    16    17 ar  
    33    16    44 1   
    34    17    18 1   
    35    17    19 ar  
    36    20    21 2   
    37    20    22 1   
    38    22    23 1   
    39    22    45 1   
    40    23    24 ar  
    41    23    30 ar  
    42    24    25 ar  
    43    24    46 1   
    44    25    26 ar  
    45    25    47 1   
    46    26    27 1   
    47    26    28 ar  
    48    28    29 1   
    49    28    30 ar  
    50    30    48 1   
    51    38    50 1   
    52    39    50 1   
    53    40    50 1   
@<TRIPOS>SUBSTRUCTURE
     1 YWE         1 TEMP              0 ****  ****    0 ROOT
