@<TRIPOS>MOLECULE
YWG
   27    26     1     0     0
SMALL
abcg2


@<TRIPOS>ATOM
      1 C20         24.7660   -17.6380    30.0720 c3         1 YWG       0.058500
      2 C28         26.0290   -17.7230    30.9400 c3         1 YWG      -0.074400
      3 C27         23.6940   -16.9510    30.9060 c          1 YWG       0.574100
      4 C29         23.6030   -15.4540    30.8280 c3         1 YWG      -0.186100
      5 C31         27.1440   -18.5460    30.3020 c3         1 YWG      -0.092400
      6 C32         28.3760   -18.6660    31.1870 c3         1 YWG       0.110000
      7 C34         28.9020   -19.5380    33.4740 c          1 YWG       0.641100
      8 N18         25.0230   -16.8970    28.8520 n8         1 YWG      -1.000200
      9 N33         28.0640   -19.3620    32.4170 ns         1 YWG      -0.526900
     10 N35         30.0720   -18.8420    33.4370 nt         1 YWG      -0.602000
     11 O30         22.9710   -17.6050    31.6260 o          1 YWG      -0.521100
     12 O36         28.6240   -20.2970    34.3970 o          1 YWG      -0.640100
     13 H201        24.4160   -18.6670    29.8990 h1         1 YWG       0.044700
     14 H281        26.3960   -16.7130    31.1520 hc         1 YWG       0.061200
     15 H282        25.7580   -18.1690    31.8990 hc         1 YWG       0.061200
     16 H1          22.9820   -15.0630    31.6320 hc         1 YWG       0.063700
     17 H2          24.5900   -14.9940    30.8660 hc         1 YWG       0.063700
     18 H3          23.1630   -15.1580    29.8730 hc         1 YWG       0.063700
     19 H311        26.7720   -19.5450    30.0510 hc         1 YWG       0.047200
     20 H312        27.4720   -18.0930    29.3640 hc         1 YWG       0.047200
     21 H322        29.1710   -19.1740    30.6310 h1         1 YWG       0.036200
     22 H321        28.7350   -17.6570    31.4100 h1         1 YWG       0.036200
     23 H181        25.7730   -17.3330    28.3320 hn         1 YWG       0.401000
     24 H331        27.2970   -20.0160    32.3850 hn         1 YWG       0.323500
     25 H352        30.5920   -18.7960    34.2970 hn         1 YWG       0.304000
     26 H351        30.1910   -18.0490    32.8290 hn         1 YWG       0.304000
     27 H4          24.2130   -16.9410    28.2450 hn         1 YWG       0.401000
@<TRIPOS>BOND
     1     1     2 1   
     2     1     3 1   
     3     1     8 1   
     4     1    13 1   
     5     2     5 1   
     6     2    14 1   
     7     2    15 1   
     8     3     4 1   
     9     3    11 2   
    10     4    16 1   
    11     4    17 1   
    12     4    18 1   
    13     5     6 1   
    14     5    19 1   
    15     5    20 1   
    16     6     9 1   
    17     6    21 1   
    18     6    22 1   
    19     7     9 1   
    20     7    10 1   
    21     7    12 2   
    22     8    23 1   
    23     8    27 1   
    24     9    24 1   
    25    10    25 1   
    26    10    26 1   
@<TRIPOS>SUBSTRUCTURE
     1 YWG         1 TEMP              0 ****  ****    0 ROOT
