@<TRIPOS>MOLECULE
YWG
   27    26     1     0     0
SMALL
No Charge or Current Charge


@<TRIPOS>ATOM
      1 C20         24.7060   -17.6160    29.9320 c3         1 YWG       0.058500
      2 C28         25.9830   -17.6470    30.8170 c3         1 YWG      -0.074400
      3 C27         23.4840   -16.9590    30.6760 c          1 YWG       0.574100
      4 C29         23.6950   -15.5750    31.2980 c3         1 YWG      -0.186100
      5 C31         27.0980   -18.5920    30.2950 c3         1 YWG      -0.092400
      6 C32         28.3510   -18.6330    31.1950 c3         1 YWG       0.110000
      7 C34         28.9380   -19.2800    33.5660 c          1 YWG       0.641100
      8 N18         25.0170   -17.0330    28.5820 n8         1 YWG      -1.000200
      9 N33         28.0680   -19.2020    32.5170 ns         1 YWG      -0.526900
     10 N35         30.1680   -18.7870    33.3500 nt         1 YWG      -0.602000
     11 O30         22.3920   -17.5150    30.7380 o          1 YWG      -0.521100
     12 O36         28.6240   -19.7670    34.6330 o          1 YWG      -0.640100
     13 H201        24.4110   -18.6610    29.7630 h1         1 YWG       0.044700
     14 H281        26.3880   -16.6320    30.9160 hc         1 YWG       0.061200
     15 H282        25.6940   -17.9680    31.8260 hc         1 YWG       0.061200
     16 H1          22.7550   -15.1110    31.6170 hc         1 YWG       0.063700
     17 H2          24.3820   -15.6710    32.1460 hc         1 YWG       0.063700
     18 H3          24.2580   -14.9430    30.6030 hc         1 YWG       0.063700
     19 H311        26.7000   -19.6090    30.1870 hc         1 YWG       0.047200
     20 H312        27.4120   -18.2680    29.2960 hc         1 YWG       0.047200
     21 H322        29.1220   -19.2470    30.7090 h1         1 YWG       0.036200
     22 H321        28.7440   -17.6150    31.3160 h1         1 YWG       0.036200
     23 H181        25.7790   -17.5680    28.1480 hn         1 YWG       0.401000
     24 H331        27.1480   -19.5870    32.6880 hn         1 YWG       0.323500
     25 H352        30.8500   -18.8210    34.0920 hn         1 YWG       0.304000
     26 H351        30.4000   -18.3920    32.4530 hn         1 YWG       0.304000
     27 H4          24.2230   -17.1900    27.9460 hn         1 YWG       0.401000
@<TRIPOS>BOND
     1     1     2 1   
     2     1     3 1   
     3     1     8 1   
     4     1    13 1   
     5     2     5 1   
     6     2    14 1   
     7     2    15 1   
     8     3     4 1   
     9     3    11 2   
    10     4    16 1   
    11     4    17 1   
    12     4    18 1   
    13     5     6 1   
    14     5    19 1   
    15     5    20 1   
    16     6     9 1   
    17     6    21 1   
    18     6    22 1   
    19     7     9 1   
    20     7    10 1   
    21     7    12 2   
    22     8    23 1   
    23     8    27 1   
    24     9    24 1   
    25    10    25 1   
    26    10    26 1   
@<TRIPOS>SUBSTRUCTURE
     1 YWG         1 TEMP              0 ****  ****    0 ROOT
