@<TRIPOS>MOLECULE
YWI
   69    73     1     0     0
SMALL
abcg2


@<TRIPOS>ATOM
      1 C4          -5.4350     6.6550    16.1400 cc         1 YWI       0.185400
      2 C14        -10.2940     9.0280    13.2830 ca         1 YWI      -0.147600
      3 C5          -4.4900     6.6210    15.1300 cd         1 YWI       0.050500
      4 C6          -4.0350     7.8520    14.5760 c          1 YWI       0.524500
      5 C11        -13.2130     8.5780    16.7810 c3         1 YWI      -0.115400
      6 C8          -4.8510     4.6060    15.6390 cc         1 YWI       0.384400
      7 C10        -12.3590     8.8240    18.0090 c3         1 YWI       0.229600
      8 C12        -12.6670     7.5250    15.8190 c3         1 YWI       0.114000
      9 C13        -11.5890     8.5880    13.8980 c          1 YWI       0.615700
     10 N1          -4.6780     8.9360    15.1880 ns         1 YWI      -0.474400
     11 N3          -6.0190     7.7240    16.6910 nc         1 YWI      -0.686100
     12 C1          -6.5020     4.8220    17.5080 c5         1 YWI       0.327300
     13 C15         -9.1770     9.3800    14.0360 ca         1 YWI      -0.050000
     14 C16         -8.0280     9.8190    13.3920 ca         1 YWI      -0.121000
     15 C17         -7.9810     9.9030    12.0110 ca         1 YWI      -0.083000
     16 C18         -9.0970     9.5670    11.2430 cp         1 YWI      -0.075000
     17 C19         -9.0640     9.6790     9.7700 cp         1 YWI      -0.009000
     18 C2          -5.6260     8.8640    16.1740 cd         1 YWI       0.735800
     19 C26         -6.1860     5.3510    18.9160 c5         1 YWI      -0.155400
     20 C20         -8.3930    10.7330     9.1490 ca         1 YWI      -0.093000
     21 C21         -8.3710    10.8380     7.7670 ca         1 YWI      -0.114000
     22 C22         -9.0180     9.9020     6.9730 ca         1 YWI      -0.095000
     23 C23         -9.6860     8.8580     7.5960 ca         1 YWI      -0.015900
     24 C24         -9.7140     8.7340     8.9760 ca         1 YWI      -0.075000
     25 C25        -10.2490     9.1400    11.8970 ca         1 YWI      -0.052000
     26 C3          -7.4460     6.1180    19.3210 c5         1 YWI       0.146300
     27 C7          -8.5050     5.4530    18.4460 c5         1 YWI       0.153300
     28 C9          -9.7670     6.2440    18.1830 c3         1 YWI       0.240600
     29 N5         -11.5030     7.9380    15.0650 ns         1 YWI      -0.478900
     30 N7          -4.1390     5.3280    14.8330 nd         1 YWI      -0.606000
     31 N9          -5.6570     5.3500    16.4640 na         1 YWI      -0.193500
     32 O1B         -9.8720     8.7280    19.7860 o          1 YWI      -0.825000
     33 O1G        -12.6520     8.8060    13.3270 o          1 YWI      -0.641100
     34 O2          -9.5160     7.4870    17.5580 os         1 YWI      -0.618400
     35 O3          -7.8050     5.9840    20.6710 oh         1 YWI      -0.711000
     36 O3A        -11.1300     9.4420    17.6560 os         1 YWI      -0.598400
     37 O3B         -8.6880     9.8610    17.7420 o          1 YWI      -0.825000
     38 O4          -7.8380     5.1540    17.2330 os         1 YWI      -0.431000
     39 O6          -3.2130     8.0350    13.6940 o          1 YWI      -0.556000
     40 PB          -9.7240     8.9370    18.3140 p5         1 YWI       1.432800
     41 BR1        -10.5740     7.5670     6.5390 br         1 YWI      -0.116100
     42 HOG2       -13.3970     9.5150    16.2480 hc         1 YWI       0.046700
     43 HO2        -14.1880     8.2310    17.1330 hc         1 YWI       0.046700
     44 H8          -4.8430     3.5270    15.6970 h5         1 YWI       0.045100
     45 HOB2       -12.2070     7.8720    18.5280 h1         1 YWI       0.017200
     46 HOA2       -12.8970     9.4760    18.7040 h1         1 YWI       0.017200
     47 H17        -13.4490     7.2420    15.1150 h1         1 YWI       0.041700
     48 HOG3       -12.4020     6.6220    16.3720 h1         1 YWI       0.041700
     49 HN1         -4.4210     9.8490    14.8320 hn         1 YWI       0.310500
     50 HN22        -7.0450     9.9460    17.1300 hn         1 YWI       0.532000
     51 HN21        -5.9680    10.8710    16.1420 hn         1 YWI       0.532000
     52 H1          -6.3610     3.7370    17.4670 h2         1 YWI       0.047700
     53 H19         -9.1910     9.3580    15.1180 ha         1 YWI       0.161000
     54 H20         -7.1640    10.1070    13.9740 ha         1 YWI       0.109000
     55 H21         -7.0670    10.2270    11.5290 ha         1 YWI       0.108000
     56 H2          -5.2820     5.9570    18.9410 hc         1 YWI       0.060700
     57 H6          -6.0400     4.5090    19.5950 hc         1 YWI       0.060700
     58 H22         -7.9010    11.4900     9.7460 ha         1 YWI       0.119000
     59 H23         -7.8540    11.6640     7.2980 ha         1 YWI       0.110000
     60 H24         -8.9990     9.9930     5.8960 ha         1 YWI       0.121000
     61 H25        -10.2220     7.8980     9.4390 ha         1 YWI       0.136000
     62 H26        -11.1370     8.9070    11.3250 ha         1 YWI       0.129000
     63 H3          -7.3350     7.1680    19.0370 h1         1 YWI       0.093700
     64 H4          -8.8220     4.5230    18.9460 h1         1 YWI       0.034700
     65 H5'        -10.2830     6.3620    19.1390 h1         1 YWI       0.038200
     66 H5         -10.4250     5.6620    17.5320 h1         1 YWI       0.038200
     67 H18        -10.6020     7.7790    15.4870 hn         1 YWI       0.349500
     68 HO3         -7.3090     6.6270    21.1840 ho         1 YWI       0.513000
     69 N2          -6.1480    10.0090    16.6300 nv         1 YWI      -1.043200
@<TRIPOS>BOND
     1     1     3 2   
     2     1    11 1   
     3     1    31 1   
     4     2     9 1   
     5     2    13 ar  
     6     2    25 ar  
     7     3     4 1   
     8     3    30 1   
     9     4    10 1   
    10     4    39 2   
    11     5     7 1   
    12     5     8 1   
    13     5    42 1   
    14     5    43 1   
    15     6    30 2   
    16     6    31 1   
    17     6    44 1   
    18     7    36 1   
    19     7    45 1   
    20     7    46 1   
    21     8    29 1   
    22     8    47 1   
    23     8    48 1   
    24     9    29 1   
    25     9    33 2   
    26    10    18 1   
    27    10    49 1   
    28    11    18 2   
    29    12    19 1   
    30    12    31 1   
    31    12    38 1   
    32    12    52 1   
    33    13    14 ar  
    34    13    53 1   
    35    14    15 ar  
    36    14    54 1   
    37    15    16 ar  
    38    15    55 1   
    39    16    17 1   
    40    16    25 ar  
    41    17    20 ar  
    42    17    24 ar  
    43    18    69 1   
    44    19    26 1   
    45    19    56 1   
    46    19    57 1   
    47    20    21 ar  
    48    20    58 1   
    49    21    22 ar  
    50    21    59 1   
    51    22    23 ar  
    52    22    60 1   
    53    23    24 ar  
    54    23    41 1   
    55    24    61 1   
    56    25    62 1   
    57    26    27 1   
    58    26    35 1   
    59    26    63 1   
    60    27    28 1   
    61    27    38 1   
    62    27    64 1   
    63    28    34 1   
    64    28    65 1   
    65    28    66 1   
    66    29    67 1   
    67    32    40 1   
    68    34    40 1   
    69    35    68 1   
    70    36    40 1   
    71    37    40 1   
    72    50    69 1   
    73    51    69 1   
@<TRIPOS>SUBSTRUCTURE
     1 YWI         1 TEMP              0 ****  ****    0 ROOT
