@<TRIPOS>MOLECULE
YWI
   69    73     1     0     0
SMALL
No Charge or Current Charge


@<TRIPOS>ATOM
      1 C4          -5.4020     7.0130    15.8040 cc         1 YWI       0.185400
      2 C14        -10.4230     7.7980    13.4400 ca         1 YWI      -0.147600
      3 C5          -4.5720     6.8700    14.7190 cd         1 YWI       0.050500
      4 C6          -4.3640     8.0330    13.8060 c          1 YWI       0.524500
      5 C11        -13.4600     8.3510    16.9180 c3         1 YWI      -0.115400
      6 C8          -4.6070     4.9560    15.7190 cc         1 YWI       0.384400
      7 C10        -12.4510     8.8080    17.9980 c3         1 YWI       0.229600
      8 C12        -13.0680     7.0690    16.1480 c3         1 YWI       0.114000
      9 C13        -11.7970     7.7400    14.0740 c          1 YWI       0.615700
     10 N1          -5.0870     9.1260    14.1870 ns         1 YWI      -0.474400
     11 N3          -6.0900     8.1650    16.1130 nc         1 YWI      -0.686100
     12 C1          -6.1860     5.4040    17.6380 c5         1 YWI       0.327300
     13 C15         -9.3350     7.0450    13.9420 ca         1 YWI      -0.050000
     14 C16         -8.0840     7.0990    13.3110 ca         1 YWI      -0.121000
     15 C17         -7.8910     7.9110    12.1850 ca         1 YWI      -0.083000
     16 C18         -8.9540     8.6800    11.6530 cp         1 YWI      -0.075000
     17 C19         -8.7510     9.5430    10.4460 cp         1 YWI      -0.009000
     18 C2          -5.8890     9.1400    15.2680 cd         1 YWI       0.735800
     19 C26         -6.0290     6.2890    18.9170 c5         1 YWI      -0.155400
     20 C20         -7.5220    10.2170    10.2250 ca         1 YWI      -0.093000
     21 C21         -7.3290    11.0290     9.0940 ca         1 YWI      -0.114000
     22 C22         -8.3620    11.1830     8.1550 ca         1 YWI      -0.095000
     23 C23         -9.5850    10.5240     8.3520 ca         1 YWI      -0.015900
     24 C24         -9.7790     9.7140     9.4840 ca         1 YWI      -0.075000
     25 C25        -10.2170     8.6000    12.2940 ca         1 YWI      -0.052000
     26 C3          -7.3620     7.0670    18.9350 c5         1 YWI       0.146300
     27 C7          -8.3220     5.9540    18.4340 c5         1 YWI       0.153300
     28 C9          -9.7610     6.3820    18.0010 c3         1 YWI       0.240600
     29 N5         -11.8550     7.2180    15.3440 ns         1 YWI      -0.478900
     30 N7          -4.0630     5.5770    14.6770 nd         1 YWI      -0.606000
     31 N9          -5.4450     5.7900    16.4340 na         1 YWI      -0.193500
     32 O1B         -9.6480     9.0420    19.2610 o          1 YWI      -0.825000
     33 O1G        -12.8060     8.0990    13.4800 o          1 YWI      -0.641100
     34 O2          -9.7280     7.5540    17.1600 os         1 YWI      -0.618400
     35 O3          -7.7070     7.5830    20.2230 oh         1 YWI      -0.711000
     36 O3A        -11.3280     9.4000    17.3430 os         1 YWI      -0.598400
     37 O3B         -8.8460     9.9410    17.1030 o          1 YWI      -0.825000
     38 O4          -7.5990     5.3670    17.3280 os         1 YWI      -0.431000
     39 O6          -3.6460     8.0470    12.8160 o          1 YWI      -0.556000
     40 PB          -9.8230     9.0410    17.7790 p5         1 YWI       1.432800
     41 Br1        -10.9930    10.7270     7.0740 br         1 YWI      -0.116100
     42 HOG2       -13.6340     9.1700    16.2090 hc         1 YWI       0.046700
     43 HO2        -14.4190     8.1630    17.4130 hc         1 YWI       0.046700
     44 H8          -4.4410     3.9240    16.0040 h5         1 YWI       0.045100
     45 HOB2       -12.1640     7.9520    18.6230 h1         1 YWI       0.017200
     46 HOA2       -12.9340     9.5510    18.6450 h1         1 YWI       0.017200
     47 H17        -13.8960     6.7750    15.4890 h1         1 YWI       0.041700
     48 HOG3       -12.9090     6.2520    16.8630 h1         1 YWI       0.041700
     49 HN1         -4.9830     9.9540    13.6240 hn         1 YWI       0.310500
     50 HN22        -7.3500    10.0740    16.1540 hn         1 YWI       0.532000
     51 HN21        -6.8420    10.7810    14.6950 hn         1 YWI       0.532000
     52 H1          -5.8470     4.3870    17.8730 h2         1 YWI       0.047700
     53 H19         -9.4470     6.3900    14.8030 ha         1 YWI       0.161000
     54 H20         -7.2630     6.4990    13.6930 ha         1 YWI       0.109000
     55 H21         -6.9140     7.9260    11.7080 ha         1 YWI       0.108000
     56 H2          -5.1570     6.9500    18.8710 hc         1 YWI       0.060700
     57 H6          -5.9170     5.6610    19.8080 hc         1 YWI       0.060700
     58 H22         -6.7130    10.1210    10.9450 ha         1 YWI       0.119000
     59 H23         -6.3800    11.5390     8.9460 ha         1 YWI       0.110000
     60 H24         -8.2140    11.8100     7.2790 ha         1 YWI       0.121000
     61 H25        -10.7300     9.2020     9.6070 ha         1 YWI       0.136000
     62 H26        -11.0450     9.1900    11.9080 ha         1 YWI       0.129000
     63 H3          -7.3190     7.8860    18.2090 h1         1 YWI       0.093700
     64 H4          -8.4280     5.1770    19.2030 h1         1 YWI       0.034700
     65 H5'        -10.3590     6.5620    18.9040 h1         1 YWI       0.038200
     66 H5         -10.2310     5.5450    17.4680 h1         1 YWI       0.038200
     67 H18        -10.9630     7.1000    15.8150 hn         1 YWI       0.349500
     68 HO3         -8.4750     8.2100    20.0340 ho         1 YWI       0.513000
     69 N2          -6.5730    10.2400    15.5020 nv         1 YWI      -1.043200
@<TRIPOS>BOND
     1     1     3 2   
     2     1    11 1   
     3     1    31 1   
     4     2     9 1   
     5     2    13 ar  
     6     2    25 ar  
     7     3     4 1   
     8     3    30 1   
     9     4    10 1   
    10     4    39 2   
    11     5     7 1   
    12     5     8 1   
    13     5    42 1   
    14     5    43 1   
    15     6    30 2   
    16     6    31 1   
    17     6    44 1   
    18     7    36 1   
    19     7    45 1   
    20     7    46 1   
    21     8    29 1   
    22     8    47 1   
    23     8    48 1   
    24     9    29 1   
    25     9    33 2   
    26    10    18 1   
    27    10    49 1   
    28    11    18 2   
    29    12    19 1   
    30    12    31 1   
    31    12    38 1   
    32    12    52 1   
    33    13    14 ar  
    34    13    53 1   
    35    14    15 ar  
    36    14    54 1   
    37    15    16 ar  
    38    15    55 1   
    39    16    17 1   
    40    16    25 ar  
    41    17    20 ar  
    42    17    24 ar  
    43    18    69 1   
    44    19    26 1   
    45    19    56 1   
    46    19    57 1   
    47    20    21 ar  
    48    20    58 1   
    49    21    22 ar  
    50    21    59 1   
    51    22    23 ar  
    52    22    60 1   
    53    23    24 ar  
    54    23    41 1   
    55    24    61 1   
    56    25    62 1   
    57    26    27 1   
    58    26    35 1   
    59    26    63 1   
    60    27    28 1   
    61    27    38 1   
    62    27    64 1   
    63    28    34 1   
    64    28    65 1   
    65    28    66 1   
    66    29    67 1   
    67    32    40 1   
    68    34    40 1   
    69    35    68 1   
    70    36    40 1   
    71    37    40 1   
    72    50    69 1   
    73    51    69 1   
@<TRIPOS>SUBSTRUCTURE
     1 YWI         1 TEMP              0 ****  ****    0 ROOT
