@<TRIPOS>MOLECULE
YWJ
   68    70     1     0     0
SMALL
No Charge or Current Charge


@<TRIPOS>ATOM
      1 C10          9.4260    22.7660    47.1530 c3         1 YWJ      -0.091600
      2 C13         11.5230    26.8210    49.9730 cc         1 YWJ      -0.159300
      3 C15         12.8350    27.6890    51.6950 ca         1 YWJ      -0.144800
      4 C20         15.1170    29.2680    51.6670 ca         1 YWJ      -0.040000
      5 C21         14.5190    28.8820    50.4470 ca         1 YWJ      -0.169000
      6 C22         13.3700    28.0850    50.5040 ca         1 YWJ      -0.003200
      7 C26          3.7390    25.7380    49.4680 c3         1 YWJ      -0.070400
      8 C28          4.4930    27.9960    50.4730 c6         1 YWJ      -0.074400
      9 C02          3.9030    23.4800    50.7440 c          1 YWJ       0.558100
     10 C03          4.5880    24.8370    50.4090 c3         1 YWJ       0.000700
     11 C05          7.1240    24.9990    50.3790 c          1 YWJ       0.587100
     12 C06          8.3880    24.6570    49.5400 c3         1 YWJ       0.038700
     13 C07          8.7000    23.1340    49.6020 c3         1 YWJ      -0.086400
     14 C08          9.8140    22.6260    48.6450 c3         1 YWJ      -0.058700
     15 C09         10.1940    21.1630    48.9690 c3         1 YWJ      -0.091600
     16 C14         11.6780    26.8960    51.3580 cd         1 YWJ      -0.161200
     17 C16         13.3950    28.0480    52.9280 ca         1 YWJ       0.201100
     18 C19         14.5610    28.8550    52.9030 ca         1 YWJ      -0.245000
     19 C27          4.3290    27.1590    49.1700 c6         1 YWJ      -0.140700
     20 C29          4.5910    29.4990    50.1560 c6         1 YWJ      -0.093400
     21 C30          3.3070    29.9730    49.4460 c6         1 YWJ       0.115000
     22 C32          3.4820    27.8540    48.0690 c          1 YWJ       0.569000
     23 N04          5.9270    24.5840    49.8280 ns         1 YWJ      -0.495900
     24 N11          9.5390    25.4540    50.0220 ns         1 YWJ      -0.470900
     25 N23         12.6050    27.5800    49.4650 na         1 YWJ      -0.184700
     26 N31          2.9140    29.0760    48.3510 ns         1 YWJ      -0.509900
     27 O01          2.9500    23.0400    50.1110 o          1 YWJ      -0.506100
     28 O17         12.8010    27.6110    54.0940 os         1 YWJ      -0.335100
     29 O25          7.1730    25.5870    51.4530 o          1 YWJ      -0.602100
     30 O33          3.3180    27.3530    46.9680 o          1 YWJ      -0.580000
     31 H103        10.2310    22.3920    46.5090 hc         1 YWJ       0.036533
     32 H102         8.5180    22.1940    46.9310 hc         1 YWJ       0.036533
     33 H101         9.2470    23.8120    46.8820 hc         1 YWJ       0.036533
     34 H201        16.0130    29.8870    51.6560 ha         1 YWJ       0.111000
     35 H211        14.9410    29.1950    49.4950 ha         1 YWJ       0.120000
     36 H261         2.7360    25.8490    49.9000 hc         1 YWJ       0.072700
     37 H262         3.5960    25.1970    48.5240 hc         1 YWJ       0.072700
     38 H282         3.6360    27.8290    51.1410 hc         1 YWJ       0.054200
     39 H281         5.3850    27.6720    51.0250 hc         1 YWJ       0.054200
     40 H031         4.7020    25.3540    51.3710 h1         1 YWJ       0.097700
     41 H061         8.1560    24.9440    48.5070 h1         1 YWJ       0.078700
     42 H071         7.7830    22.5690    49.3900 hc         1 YWJ       0.055200
     43 H072         8.9740    22.8850    50.6360 hc         1 YWJ       0.055200
     44 H081        10.7140    23.2310    48.8130 hc         1 YWJ       0.048700
     45 H092        10.5290    21.0700    50.0100 hc         1 YWJ       0.036533
     46 H091         9.3370    20.4940    48.8230 hc         1 YWJ       0.036533
     47 H093        11.0110    20.8210    48.3220 hc         1 YWJ       0.036533
     48 H141        11.0310    26.4290    52.0970 ha         1 YWJ       0.208000
     49 H182        12.7120    27.5020    56.1780 h1         1 YWJ       0.042033
     50 H183        14.3530    27.5670    55.5020 h1         1 YWJ       0.042033
     51 H181        13.3390    29.0340    55.5350 h1         1 YWJ       0.042033
     52 H191        15.0450    29.1690    53.8220 ha         1 YWJ       0.117000
     53 H271         5.3120    26.9950    48.7100 hc         1 YWJ       0.086700
     54 H291         5.4630    29.6880    49.5150 hc         1 YWJ       0.056200
     55 H292         4.7440    30.0770    51.0770 hc         1 YWJ       0.056200
     56 H301         3.4490    30.9870    49.0470 h1         1 YWJ       0.036200
     57 H302         2.4800    30.0070    50.1690 h1         1 YWJ       0.036200
     58 H341         3.9460    21.7750    52.1320 hc         1 YWJ       0.063033
     59 H343         5.5510    22.5160    51.7360 hc         1 YWJ       0.063033
     60 H1           4.5250    23.3610    52.8020 hc         1 YWJ       0.063033
     61 H041         5.9830    24.1040    48.9350 hn         1 YWJ       0.320500
     62 H111         9.6460    25.5720    51.0210 hn         1 YWJ       0.331500
     63 H2          12.7940    27.7320    48.4790 hn         1 YWJ       0.369000
     64 H3           2.3350    29.4610    47.6150 hn         1 YWJ       0.312500
     65 C12         10.4590    26.0990    49.2270 c          1 YWJ       0.636300
     66 C34          4.4890    22.7050    51.9250 c3         1 YWJ      -0.199100
     67 O24         10.3970    26.0820    48.0050 o          1 YWJ      -0.628100
     68 C18         13.3300    27.9470    55.3880 c3         1 YWJ       0.146900
@<TRIPOS>BOND
     1     1    14 1   
     2     1    31 1   
     3     1    32 1   
     4     1    33 1   
     5     2    16 2   
     6     2    25 1   
     7     2    65 1   
     8     3     6 ar  
     9     3    16 1   
    10     3    17 ar  
    11     4     5 ar  
    12     4    18 ar  
    13     4    34 1   
    14     5     6 ar  
    15     5    35 1   
    16     6    25 1   
    17     7    10 1   
    18     7    19 1   
    19     7    36 1   
    20     7    37 1   
    21     8    19 1   
    22     8    20 1   
    23     8    38 1   
    24     8    39 1   
    25     9    10 1   
    26     9    27 2   
    27     9    66 1   
    28    10    23 1   
    29    10    40 1   
    30    11    12 1   
    31    11    23 1   
    32    11    29 2   
    33    12    13 1   
    34    12    24 1   
    35    12    41 1   
    36    13    14 1   
    37    13    42 1   
    38    13    43 1   
    39    14    15 1   
    40    14    44 1   
    41    15    45 1   
    42    15    46 1   
    43    15    47 1   
    44    16    48 1   
    45    17    18 ar  
    46    17    28 1   
    47    18    52 1   
    48    19    22 1   
    49    19    53 1   
    50    20    21 1   
    51    20    54 1   
    52    20    55 1   
    53    21    26 1   
    54    21    56 1   
    55    21    57 1   
    56    22    26 1   
    57    22    30 2   
    58    23    61 1   
    59    24    62 1   
    60    24    65 1   
    61    25    63 1   
    62    26    64 1   
    63    28    68 1   
    64    49    68 1   
    65    50    68 1   
    66    51    68 1   
    67    58    66 1   
    68    59    66 1   
    69    60    66 1   
    70    65    67 2   
@<TRIPOS>SUBSTRUCTURE
     1 YWJ         1 TEMP              0 ****  ****    0 ROOT
