@<TRIPOS>MOLECULE
YWJ
   68    70     1     0     0
SMALL
bcc


@<TRIPOS>ATOM
      1 C10          9.7400    22.0550    48.2260 c3         1 YWJ      -0.091600
      2 C13         10.4980    27.0670    50.6030 cc         1 YWJ      -0.159300
      3 C15         12.3200    27.8810    51.6170 ca         1 YWJ      -0.144800
      4 C20         13.1680    30.5030    51.8940 ca         1 YWJ      -0.058000
      5 C21         11.9980    30.2870    51.2050 ca         1 YWJ      -0.187000
      6 C22         11.5870    28.9550    51.0740 ca         1 YWJ      -0.003200
      7 C26          3.9400    26.0380    49.0710 c3         1 YWJ      -0.070400
      8 C28          5.0210    28.0250    50.2540 c6         1 YWJ      -0.074400
      9 C02          3.6190    23.7590    50.1540 c          1 YWJ       0.558100
     10 C03          4.5140    24.9920    50.0250 c3         1 YWJ       0.000700
     11 C05          6.9220    24.6970    50.4660 c          1 YWJ       0.654100
     12 C06          8.2320    24.1810    49.8660 c3         1 YWJ       0.038700
     13 C07          8.4190    22.7230    50.2860 c3         1 YWJ      -0.086400
     14 C08          9.6780    22.0380    49.7490 c3         1 YWJ      -0.058700
     15 C09          9.7320    20.6070    50.2740 c3         1 YWJ      -0.091600
     16 C14         11.6120    26.6880    51.3090 cd         1 YWJ      -0.111200
     17 C16         13.5190    28.1400    52.3110 ca         1 YWJ       0.201100
     18 C19         13.9310    29.4530    52.4450 ca         1 YWJ      -0.263000
     19 C27          4.8190    27.2820    48.9360 c6         1 YWJ      -0.140700
     20 C29          5.7680    29.3250    50.0150 c6         1 YWJ      -0.093400
     21 C30          4.9390    30.2310    49.1310 c6         1 YWJ       0.115000
     22 C32          4.2730    28.1820    47.8340 c          1 YWJ       0.711500
     23 N04          5.8540    24.6010    49.6540 ns         1 YWJ      -0.562900
     24 N11          9.3350    24.9880    50.3220 ns         1 YWJ      -0.537900
     25 N23         10.4960    28.4290    50.4620 na         1 YWJ      -0.134400
     26 N31          4.4290    29.5100    47.9790 ns         1 YWJ      -0.576900
     27 O01          2.4770    23.7670    49.7640 o          1 YWJ      -0.506100
     28 O17         14.1630    27.0640    52.7890 os         1 YWJ      -0.311900
     29 O25          6.8710    25.1070    51.6130 o          1 YWJ      -0.602100
     30 O33          3.7480    27.7120    46.8310 o          1 YWJ      -0.655500
     31 H103        10.6160    21.5110    47.8690 hc         1 YWJ       0.036533
     32 H102         8.8560    21.5780    47.7940 hc         1 YWJ       0.036533
     33 H101         9.8040    23.0670    47.8250 hc         1 YWJ       0.036533
     34 H201        13.5270    31.5150    52.0240 ha         1 YWJ       0.129000
     35 H211        11.4240    31.1040    50.7870 ha         1 YWJ       0.138000
     36 H261         2.9510    26.3300    49.4300 hc         1 YWJ       0.072700
     37 H262         3.7970    25.5840    48.0890 hc         1 YWJ       0.072700
     38 H282         4.0510    28.2340    50.7190 hc         1 YWJ       0.054200
     39 H281         5.5760    27.4010    50.9550 hc         1 YWJ       0.054200
     40 H031         4.5760    25.4020    51.0380 h1         1 YWJ       0.097700
     41 H061         8.1790    24.2380    48.7760 h1         1 YWJ       0.078700
     42 H071         7.5420    22.1630    49.9460 hc         1 YWJ       0.055200
     43 H072         8.4150    22.6680    51.3800 hc         1 YWJ       0.055200
     44 H081        10.5580    22.5660    50.1320 hc         1 YWJ       0.048700
     45 H092         9.7100    20.5790    51.3650 hc         1 YWJ       0.036533
     46 H091         8.8810    20.0270    49.9100 hc         1 YWJ       0.036533
     47 H093        10.6420    20.1030    49.9470 hc         1 YWJ       0.036533
     48 H141        11.9020    25.6810    51.5650 ha         1 YWJ       0.158000
     49 H182        15.7170    26.2790    53.8020 h1         1 YWJ       0.042033
     50 H183        16.1310    27.7400    52.8860 h1         1 YWJ       0.042033
     51 H181        15.2100    27.8700    54.4010 h1         1 YWJ       0.042033
     52 H191        14.8420    29.7030    52.9720 ha         1 YWJ       0.135000
     53 H271         5.8090    26.9700    48.5790 hc         1 YWJ       0.086700
     54 H291         6.7340    29.1150    49.5470 hc         1 YWJ       0.056200
     55 H292         5.9730    29.8390    50.9550 hc         1 YWJ       0.056200
     56 H301         5.5300    31.0750    48.7730 h1         1 YWJ       0.036200
     57 H302         4.1060    30.6430    49.7070 h1         1 YWJ       0.036200
     58 H341         3.4660    21.8480    51.1160 hc         1 YWJ       0.063033
     59 H343         4.9150    22.0580    50.1230 hc         1 YWJ       0.063033
     60 H1           4.8270    22.8430    51.6870 hc         1 YWJ       0.063033
     61 H041         5.9960    24.2890    48.7040 hn         1 YWJ       0.320500
     62 H111         9.9060    24.6320    51.0720 hn         1 YWJ       0.331500
     63 H2           9.7770    28.9500    49.9850 hn         1 YWJ       0.318700
     64 H3           4.0480    30.0700    47.2300 hn         1 YWJ       0.312500
     65 C12          9.3960    26.2950    50.0100 c          1 YWJ       0.703300
     66 C34          4.2350    22.5580    50.8170 c3         1 YWJ      -0.199100
     67 O24          8.5860    26.8320    49.2620 o          1 YWJ      -0.628100
     68 C18         15.3660    27.2640    53.5040 c3         1 YWJ       0.123700
@<TRIPOS>BOND
     1     1    14 1   
     2     1    31 1   
     3     1    32 1   
     4     1    33 1   
     5     2    16 2   
     6     2    25 1   
     7     2    65 1   
     8     3     6 ar  
     9     3    16 1   
    10     3    17 ar  
    11     4     5 ar  
    12     4    18 ar  
    13     4    34 1   
    14     5     6 ar  
    15     5    35 1   
    16     6    25 1   
    17     7    10 1   
    18     7    19 1   
    19     7    36 1   
    20     7    37 1   
    21     8    19 1   
    22     8    20 1   
    23     8    38 1   
    24     8    39 1   
    25     9    10 1   
    26     9    27 2   
    27     9    66 1   
    28    10    23 1   
    29    10    40 1   
    30    11    12 1   
    31    11    23 1   
    32    11    29 2   
    33    12    13 1   
    34    12    24 1   
    35    12    41 1   
    36    13    14 1   
    37    13    42 1   
    38    13    43 1   
    39    14    15 1   
    40    14    44 1   
    41    15    45 1   
    42    15    46 1   
    43    15    47 1   
    44    16    48 1   
    45    17    18 ar  
    46    17    28 1   
    47    18    52 1   
    48    19    22 1   
    49    19    53 1   
    50    20    21 1   
    51    20    54 1   
    52    20    55 1   
    53    21    26 1   
    54    21    56 1   
    55    21    57 1   
    56    22    26 1   
    57    22    30 2   
    58    23    61 1   
    59    24    62 1   
    60    24    65 1   
    61    25    63 1   
    62    26    64 1   
    63    28    68 1   
    64    49    68 1   
    65    50    68 1   
    66    51    68 1   
    67    58    66 1   
    68    59    66 1   
    69    60    66 1   
    70    65    67 2   
@<TRIPOS>SUBSTRUCTURE
     1 YWJ         1 TEMP              0 ****  ****    0 ROOT
