@<TRIPOS>MOLECULE
YWK
   10     9     1     0     0
SMALL
No Charge or Current Charge


@<TRIPOS>ATOM
      1 C01          1.8570    12.5170    -0.5810 c3         1 YWK      -0.037000
      2 C02          1.4550    11.0200    -0.6290 c3         1 YWK       0.243000
      3 C03          1.4170    13.1460     0.7770 c          1 YWK       0.724000
      4 F01          3.2000    12.6270    -0.7620 f          1 YWK      -0.120500
      5 F02          1.2880    13.1680    -1.6310 f          1 YWK      -0.120500
      6 F03          0.1170    10.8680    -0.4960 f          1 YWK      -0.121000
      7 F04          1.8240    10.4450    -1.7980 f          1 YWK      -0.121000
      8 F05          2.0360    10.3260     0.3770 f          1 YWK      -0.121000
      9 O01          2.2210    13.1630     1.7020 o          1 YWK      -0.663500
     10 O02          0.3250    13.6990     0.8400 o          1 YWK      -0.663500
@<TRIPOS>BOND
     1     1     2 1   
     2     1     3 1   
     3     1     4 1   
     4     1     5 1   
     5     2     6 1   
     6     2     7 1   
     7     2     8 1   
     8     3     9 1   
     9     3    10 1   
@<TRIPOS>SUBSTRUCTURE
     1 YWK         1 TEMP              0 ****  ****    0 ROOT
