@<TRIPOS>MOLECULE
YWK
   10     9     1     0     0
SMALL
abcg2


@<TRIPOS>ATOM
      1 C01          1.8770    12.4990    -0.5240 c3         1 YWK      -0.037000
      2 C02          1.3760    11.0530    -0.6630 c3         1 YWK       0.243000
      3 C03          1.5080    13.1710     0.8350 c          1 YWK       0.724000
      4 F01          3.2130    12.4730    -0.7330 f          1 YWK      -0.120500
      5 F02          1.3310    13.2050    -1.5530 f          1 YWK      -0.120500
      6 F03          0.0620    10.9960    -0.8470 f          1 YWK      -0.121000
      7 F04          1.9510    10.4380    -1.7010 f          1 YWK      -0.121000
      8 F05          1.6780    10.3540     0.4340 f          1 YWK      -0.121000
      9 O01          2.4420    13.6960     1.4440 o          1 YWK      -0.663500
     10 O02          0.3030    13.0940     1.1060 o          1 YWK      -0.663500
@<TRIPOS>BOND
     1     1     2 1   
     2     1     3 1   
     3     1     4 1   
     4     1     5 1   
     5     2     6 1   
     6     2     7 1   
     7     2     8 1   
     8     3     9 1   
     9     3    10 1   
@<TRIPOS>SUBSTRUCTURE
     1 YWK         1 TEMP              0 ****  ****    0 ROOT
