@<TRIPOS>MOLECULE
YWM
  101   104     1     0     0
SMALL
No Charge or Current Charge


@<TRIPOS>ATOM
      1 C13         20.2940    -1.0690    14.9890 c3         1 YWM       0.152300
      2 C15         20.0570    -0.4330    16.3950 c3         1 YWM       0.096700
      3 C17         22.1530     0.3210    17.5620 c          1 YWM       0.640100
      4 C20         23.9090     1.4520    18.7130 c5         1 YWM       0.159300
      5 C21         24.8780     2.6100    18.3530 c5         1 YWM       0.152600
      6 C24         23.9130     3.3340    20.3230 c5         1 YWM       0.369300
      7 C26         21.6140     3.3730    20.0700 c5         1 YWM       0.152600
      8 C28         18.6560     0.2080    16.6050 c3         1 YWM      -0.039100
      9 C01         15.7810    -5.6900    12.8290 ca         1 YWM      -0.074300
     10 C02         15.5660    -4.4190    13.3980 ca         1 YWM      -0.120500
     11 C03         16.3580    -3.9690    14.4680 ca         1 YWM      -0.018000
     12 C04         17.3860    -4.7880    14.9790 ca         1 YWM      -0.301500
     13 C05         17.6020    -6.0630    14.4190 ca         1 YWM      -0.018000
     14 C06         16.8060    -6.5070    13.3500 ca         1 YWM      -0.120500
     15 C11         20.6150    -4.5220    14.8600 c3         1 YWM       0.208800
     16 C12         19.4210    -2.3330    14.7180 c3         1 YWM       0.217800
     17 C23         23.4770     1.8360    20.1890 c5         1 YWM      -0.145700
     18 C25         21.9210     1.8990    20.4180 c5         1 YWM      -0.096400
     19 C29         18.5030     0.8450    17.9840 ca         1 YWM      -0.112300
     20 C30         18.5670     0.0470    19.1440 ca         1 YWM      -0.068500
     21 C31         18.4640     0.6340    20.4170 ca         1 YWM      -0.163000
     22 C32         18.2880     2.0280    20.5400 ca         1 YWM       0.130100
     23 C33         18.2070     2.8200    19.3840 ca         1 YWM      -0.163000
     24 C34         18.3170     2.2350    18.1110 ca         1 YWM      -0.068500
     25 C36         22.0450    -4.0530    14.4780 c3         1 YWM      -0.063700
     26 C37         22.7700    -5.1240    13.6320 c3         1 YWM      -0.091600
     27 C38         22.8860    -3.6780    15.7220 c3         1 YWM      -0.091600
     28 C39         14.9090    -6.1680    11.6670 c3         1 YWM       0.213600
     29 C40         18.3660     1.9460    23.0160 c3         1 YWM      -0.206400
     30 C44         16.0930     4.1620    25.6420 c3         1 YWM       0.232600
     31 C45         18.4140     0.7200    25.7900 c3         1 YWM       0.232600
     32 C46         16.5980     3.9900    27.0900 c3         1 YWM      -0.099100
     33 C47         18.5700     0.2630    27.2470 c3         1 YWM      -0.099100
     34 C49         14.1020    -7.4340    12.0150 c3         1 YWM      -0.086100
     35 N10         19.7570    -3.5230    15.5570 n3         1 YWM      -0.742500
     36 N16         21.1030     0.5500    16.7200 ns         1 YWM      -0.504900
     37 O08         18.9190    -5.3700    17.0990 o          1 YWM      -0.533000
     38 O09         17.7410    -3.1160    17.0510 o          1 YWM      -0.533000
     39 O14         20.0820    -0.0920    13.9480 oh         1 YWM      -0.668000
     40 O18         22.4140    -0.7530    18.0810 o          1 YWM      -0.540000
     41 O19         22.8070     1.5050    17.7610 os         1 YWM      -0.452100
     42 O22         24.3070     3.7560    19.0070 os         1 YWM      -0.463000
     43 O27         22.7220     4.0590    20.6790 os         1 YWM      -0.424000
     44 O35         18.2050     2.6600    21.7640 os         1 YWM      -0.338100
     45 O42         16.6610     3.1580    24.7840 os         1 YWM      -0.619900
     46 O43         18.7250     2.1160    25.7510 os         1 YWM      -0.619900
     47 O48         18.9660     4.3540    24.3830 o          1 YWM      -0.542000
     48 O50         15.7240    -6.4330    10.5230 oh         1 YWM      -0.652000
     49 P41         18.2550     3.0490    24.5120 p5         1 YWM       1.381800
     50 S07         18.4100    -4.2160    16.3500 sy         1 YWM       1.165600
     51 H131        21.3420    -1.3850    14.9590 h1         1 YWM       0.053700
     52 H151        20.1400    -1.2550    17.1200 h1         1 YWM       0.101700
     53 H201        24.4330     0.4870    18.6510 h1         1 YWM       0.082700
     54 H212        24.9530     2.7880    17.2720 h1         1 YWM       0.056700
     55 H211        25.8850     2.4310    18.7550 h1         1 YWM       0.056700
     56 H241        24.7230     3.4850    21.0500 h2         1 YWM       0.080700
     57 H262        20.6680     3.7290    20.4980 h1         1 YWM       0.059200
     58 H261        21.6120     3.5580    18.9860 h1         1 YWM       0.059200
     59 H282        18.4820     0.9580    15.8240 hc         1 YWM       0.064200
     60 H281        17.8760    -0.5490    16.4690 hc         1 YWM       0.064200
     61 H021        14.7780    -3.7750    13.0140 ha         1 YWM       0.125000
     62 H031        16.1660    -2.9860    14.8940 ha         1 YWM       0.134500
     63 H051        18.3860    -6.7130    14.8060 ha         1 YWM       0.134500
     64 H061        16.9910    -7.4900    12.9230 ha         1 YWM       0.125000
     65 H111        20.1080    -4.8600    13.9460 h1         1 YWM       0.048700
     66 H112        20.7480    -5.4140    15.4860 h1         1 YWM       0.048700
     67 H122        18.3740    -2.0340    14.8450 h1         1 YWM       0.063200
     68 H121        19.5160    -2.5930    13.6550 h1         1 YWM       0.063200
     69 H231        23.9780     1.2030    20.9290 hc         1 YWM       0.075700
     70 H252        21.6810     1.7110    21.4700 hc         1 YWM       0.062200
     71 H251        21.3280     1.1840    19.8430 hc         1 YWM       0.062200
     72 H301        18.7050    -1.0290    19.0590 ha         1 YWM       0.121000
     73 H311        18.5270    -0.0050    21.2930 ha         1 YWM       0.122500
     74 H331        18.0700     3.8940    19.4760 ha         1 YWM       0.122500
     75 H341        18.2650     2.8650    17.2260 ha         1 YWM       0.121000
     76 H361        21.9600    -3.1660    13.8400 hc         1 YWM       0.046700
     77 H373        23.7640    -4.7710    13.3280 hc         1 YWM       0.040200
     78 H371        22.8960    -6.0540    14.2010 hc         1 YWM       0.040200
     79 H372        22.2010    -5.3520    12.7230 hc         1 YWM       0.040200
     80 H382        22.3810    -2.9160    16.3270 hc         1 YWM       0.040200
     81 H381        23.0520    -4.5550    16.3590 hc         1 YWM       0.040200
     82 H383        23.8640    -3.2800    15.4250 hc         1 YWM       0.040200
     83 H391        14.1900    -5.3740    11.4230 h1         1 YWM       0.036700
     84 H401        17.5860     1.1840    23.1320 h1         1 YWM       0.067200
     85 H402        19.3510     1.4660    23.0660 h1         1 YWM       0.067200
     86 H442        16.3440     5.1700    25.2840 h1         1 YWM       0.039450
     87 H441        14.9990     4.0740    25.6380 h1         1 YWM       0.039450
     88 H451        17.3830     0.5290    25.4600 h1         1 YWM       0.039450
     89 H452        19.1000     0.1460    25.1530 h1         1 YWM       0.039450
     90 H463        16.0440     4.6600    27.7580 hc         1 YWM       0.047033
     91 H462        16.4390     2.9620    27.4350 hc         1 YWM       0.047033
     92 H461        17.6620     4.2380    27.1790 hc         1 YWM       0.047033
     93 H473        18.3480    -0.8070    27.3350 hc         1 YWM       0.047033
     94 H471        19.5950     0.4330    27.5970 hc         1 YWM       0.047033
     95 H472        17.8810     0.8130    27.9000 hc         1 YWM       0.047033
     96 H493        13.4740    -7.2540    12.8950 hc         1 YWM       0.049367
     97 H491        13.4480    -7.7130    11.1810 hc         1 YWM       0.049367
     98 H492        14.7640    -8.2800    12.2310 hc         1 YWM       0.049367
     99 H161        20.9870     1.5090    16.4220 hn         1 YWM       0.322500
    100 H141        20.7750     0.5950    14.0580 ho         1 YWM       0.451000
    101 H501        16.2970    -5.6440    10.4040 ho         1 YWM       0.446000
@<TRIPOS>BOND
     1     1     2 1   
     2     1    16 1   
     3     1    39 1   
     4     1    51 1   
     5     2     8 1   
     6     2    36 1   
     7     2    52 1   
     8     3    36 1   
     9     3    40 2   
    10     3    41 1   
    11     4     5 1   
    12     4    17 1   
    13     4    41 1   
    14     4    53 1   
    15     5    42 1   
    16     5    54 1   
    17     5    55 1   
    18     6    17 1   
    19     6    42 1   
    20     6    43 1   
    21     6    56 1   
    22     7    18 1   
    23     7    43 1   
    24     7    57 1   
    25     7    58 1   
    26     8    19 1   
    27     8    59 1   
    28     8    60 1   
    29     9    10 ar  
    30     9    14 ar  
    31     9    28 1   
    32    10    11 ar  
    33    10    61 1   
    34    11    12 ar  
    35    11    62 1   
    36    12    13 ar  
    37    12    50 1   
    38    13    14 ar  
    39    13    63 1   
    40    14    64 1   
    41    15    25 1   
    42    15    35 1   
    43    15    65 1   
    44    15    66 1   
    45    16    35 1   
    46    16    67 1   
    47    16    68 1   
    48    17    18 1   
    49    17    69 1   
    50    18    70 1   
    51    18    71 1   
    52    19    20 ar  
    53    19    24 ar  
    54    20    21 ar  
    55    20    72 1   
    56    21    22 ar  
    57    21    73 1   
    58    22    23 ar  
    59    22    44 1   
    60    23    24 ar  
    61    23    74 1   
    62    24    75 1   
    63    25    26 1   
    64    25    27 1   
    65    25    76 1   
    66    26    77 1   
    67    26    78 1   
    68    26    79 1   
    69    27    80 1   
    70    27    81 1   
    71    27    82 1   
    72    28    34 1   
    73    28    48 1   
    74    28    83 1   
    75    29    44 1   
    76    29    49 1   
    77    29    84 1   
    78    29    85 1   
    79    30    32 1   
    80    30    45 1   
    81    30    86 1   
    82    30    87 1   
    83    31    33 1   
    84    31    46 1   
    85    31    88 1   
    86    31    89 1   
    87    32    90 1   
    88    32    91 1   
    89    32    92 1   
    90    33    93 1   
    91    33    94 1   
    92    33    95 1   
    93    34    96 1   
    94    34    97 1   
    95    34    98 1   
    96    35    50 1   
    97    36    99 1   
    98    37    50 2   
    99    38    50 2   
   100    39   100 1   
   101    45    49 1   
   102    46    49 1   
   103    47    49 2   
   104    48   101 1   
@<TRIPOS>SUBSTRUCTURE
     1 YWM         1 TEMP              0 ****  ****    0 ROOT
