@<TRIPOS>MOLECULE
YWM
  101   104     1     0     0
SMALL
abcg2


@<TRIPOS>ATOM
      1 C13         19.9070    -0.4930    15.0030 c3         1 YWM       0.152300
      2 C15         19.7030    -0.2530    16.5090 c3         1 YWM       0.096700
      3 C17         21.6370     0.2870    17.9180 c          1 YWM       0.640100
      4 C20         23.5080     1.0990    19.1330 c5         1 YWM       0.159300
      5 C21         24.5930     2.1050    18.7910 c5         1 YWM       0.152600
      6 C24         23.8020     2.8660    20.7860 c5         1 YWM       0.369300
      7 C26         21.5380     3.1300    20.8410 c5         1 YWM       0.152600
      8 C28         18.3020     0.2640    16.8640 c3         1 YWM      -0.039100
      9 C01         16.1830    -6.2620    12.9230 ca         1 YWM      -0.074300
     10 C02         15.7790    -5.0250    13.4180 ca         1 YWM      -0.120500
     11 C03         16.5570    -4.3320    14.3300 ca         1 YWM      -0.018000
     12 C04         17.7630    -4.8830    14.7480 ca         1 YWM      -0.301500
     13 C05         18.1820    -6.1180    14.2690 ca         1 YWM      -0.018000
     14 C06         17.3910    -6.7980    13.3580 ca         1 YWM      -0.120500
     15 C11         20.6450    -3.6270    13.9670 c3         1 YWM       0.208800
     16 C12         19.1500    -1.7050    14.4560 c3         1 YWM       0.217800
     17 C23         23.2090     1.4450    20.6010 c5         1 YWM      -0.145700
     18 C25         21.7490     1.6330    21.0140 c5         1 YWM      -0.096400
     19 C29         18.2110     0.7020    18.2980 ca         1 YWM      -0.112300
     20 C30         18.1960    -0.2090    19.3470 ca         1 YWM      -0.068500
     21 C31         18.1890     0.2050    20.6750 ca         1 YWM      -0.163000
     22 C32         18.2000     1.5640    20.9680 ca         1 YWM       0.130100
     23 C33         18.1890     2.4920    19.9320 ca         1 YWM      -0.163000
     24 C34         18.1980     2.0580    18.6190 ca         1 YWM      -0.068500
     25 C36         22.0480    -3.0210    13.9410 c3         1 YWM      -0.063700
     26 C37         22.8750    -3.7670    12.8990 c3         1 YWM      -0.091600
     27 C38         22.7120    -3.0740    15.3100 c3         1 YWM      -0.091600
     28 C39         15.2950    -7.0220    11.9610 c3         1 YWM       0.213600
     29 C40         18.5370     1.2420    23.3110 c3         1 YWM      -0.206400
     30 C44         17.5030     4.5840    24.4090 c3         1 YWM       0.232600
     31 C45         18.0550     0.9030    26.6660 c3         1 YWM       0.232600
     32 C46         16.0740     4.9970    24.6550 c3         1 YWM      -0.099100
     33 C47         18.6100    -0.0850    27.6610 c3         1 YWM      -0.099100
     34 C49         14.3400    -7.9220    12.7290 c3         1 YWM      -0.086100
     35 N10         19.7240    -2.9720    14.9020 n3         1 YWM      -0.742500
     36 N16         20.7210     0.6520    17.0030 ns         1 YWM      -0.504900
     37 O08         19.7240    -4.9220    16.4670 o          1 YWM      -0.533000
     38 O09         17.9720    -3.1360    16.6900 o          1 YWM      -0.533000
     39 O14         19.4930     0.6000    14.2150 oh         1 YWM      -0.668000
     40 O18         21.7760    -0.8310    18.3720 o          1 YWM      -0.540000
     41 O19         22.4010     1.3340    18.2650 os         1 YWM      -0.452100
     42 O22         24.2710     3.2680    19.5190 os         1 YWM      -0.463000
     43 O27         22.7880     3.7030    21.2140 os         1 YWM      -0.424000
     44 O35         18.2210     2.0780    22.2220 os         1 YWM      -0.338100
     45 O42         17.6810     3.2520    24.9260 os         1 YWM      -0.619900
     46 O43         19.1550     1.4950    25.9500 os         1 YWM      -0.619900
     47 O48         20.2300     3.1720    24.3460 o          1 YWM      -0.542000
     48 O50         16.0330    -7.8360    11.0800 oh         1 YWM      -0.652000
     49 P41         19.0050     2.3970    24.6450 p5         1 YWM       1.381800
     50 S07         18.8140    -3.9730    15.8480 sy         1 YWM       1.165600
     51 H131        20.9800    -0.6770    14.8650 h1         1 YWM       0.053700
     52 H151        19.8680    -1.2050    17.0150 h1         1 YWM       0.101700
     53 H201        23.8580     0.0750    19.0180 h1         1 YWM       0.082700
     54 H212        24.6450     2.3430    17.7290 h1         1 YWM       0.056700
     55 H211        25.5660     1.6970    19.0970 h1         1 YWM       0.056700
     56 H241        24.6170     2.9160    21.5180 h2         1 YWM       0.080700
     57 H262        20.7670     3.5350    21.4950 h1         1 YWM       0.059200
     58 H261        21.2780     3.3840    19.8090 h1         1 YWM       0.059200
     59 H282        18.0460     1.1050    16.2160 hc         1 YWM       0.064200
     60 H281        17.5750    -0.5230    16.6560 hc         1 YWM       0.064200
     61 H021        14.8400    -4.5950    13.0900 ha         1 YWM       0.125000
     62 H031        16.2180    -3.3760    14.7070 ha         1 YWM       0.134500
     63 H051        19.1120    -6.5580    14.6020 ha         1 YWM       0.134500
     64 H061        17.7240    -7.7590    12.9880 ha         1 YWM       0.125000
     65 H111        20.2120    -3.6010    12.9610 h1         1 YWM       0.048700
     66 H112        20.7490    -4.6790    14.2370 h1         1 YWM       0.048700
     67 H122        18.0920    -1.6360    14.7120 h1         1 YWM       0.063200
     68 H121        19.2030    -1.6730    13.3640 h1         1 YWM       0.063200
     69 H231        23.7150     0.7210    21.2390 hc         1 YWM       0.075700
     70 H252        21.6310     1.3630    22.0650 hc         1 YWM       0.062200
     71 H251        21.0340     1.0350    20.4510 hc         1 YWM       0.062200
     72 H301        18.1920    -1.2720    19.1350 ha         1 YWM       0.121000
     73 H311        18.1800    -0.5410    21.4600 ha         1 YWM       0.122500
     74 H331        18.1940     3.5510    20.1620 ha         1 YWM       0.122500
     75 H341        18.2080     2.7950    17.8240 ha         1 YWM       0.121000
     76 H361        21.9780    -1.9780    13.6170 hc         1 YWM       0.046700
     77 H373        23.8770    -3.3450    12.8250 hc         1 YWM       0.040200
     78 H371        22.9780    -4.8220    13.1630 hc         1 YWM       0.040200
     79 H372        22.4190    -3.7140    11.9090 hc         1 YWM       0.040200
     80 H382        22.1470    -2.5240    16.0630 hc         1 YWM       0.040200
     81 H381        22.8060    -4.1070    15.6530 hc         1 YWM       0.040200
     82 H383        23.7130    -2.6440    15.2680 hc         1 YWM       0.040200
     83 H391        14.6980    -6.2870    11.4030 h1         1 YWM       0.036700
     84 H401        17.6920     0.6050    23.5960 h1         1 YWM       0.067200
     85 H402        19.3930     0.5910    23.1040 h1         1 YWM       0.067200
     86 H442        18.1950     5.2610    24.9120 h1         1 YWM       0.039450
     87 H441        17.7270     4.6070    23.3410 h1         1 YWM       0.039450
     88 H451        17.4940     1.6900    27.1730 h1         1 YWM       0.039450
     89 H452        17.3760     0.4010    25.9720 h1         1 YWM       0.039450
     90 H463        15.9240     6.0100    24.2810 hc         1 YWM       0.047033
     91 H462        15.3740     4.3410    24.1370 hc         1 YWM       0.047033
     92 H461        15.8350     4.9950    25.7180 hc         1 YWM       0.047033
     93 H473        17.7870    -0.5230    28.2260 hc         1 YWM       0.047033
     94 H471        19.1470    -0.8940    27.1660 hc         1 YWM       0.047033
     95 H472        19.2820     0.3980    28.3700 hc         1 YWM       0.047033
     96 H493        13.7200    -7.3320    13.4030 hc         1 YWM       0.049367
     97 H491        13.6800    -8.4560    12.0450 hc         1 YWM       0.049367
     98 H492        14.8870    -8.6540    13.3270 hc         1 YWM       0.049367
     99 H161        20.6650     1.6290    16.7560 hn         1 YWM       0.322500
    100 H141        20.1040     1.3320    14.3430 ho         1 YWM       0.451000
    101 H501        16.5860    -7.2710    10.5300 ho         1 YWM       0.446000
@<TRIPOS>BOND
     1     1     2 1   
     2     1    16 1   
     3     1    39 1   
     4     1    51 1   
     5     2     8 1   
     6     2    36 1   
     7     2    52 1   
     8     3    36 1   
     9     3    40 2   
    10     3    41 1   
    11     4     5 1   
    12     4    17 1   
    13     4    41 1   
    14     4    53 1   
    15     5    42 1   
    16     5    54 1   
    17     5    55 1   
    18     6    17 1   
    19     6    42 1   
    20     6    43 1   
    21     6    56 1   
    22     7    18 1   
    23     7    43 1   
    24     7    57 1   
    25     7    58 1   
    26     8    19 1   
    27     8    59 1   
    28     8    60 1   
    29     9    10 ar  
    30     9    14 ar  
    31     9    28 1   
    32    10    11 ar  
    33    10    61 1   
    34    11    12 ar  
    35    11    62 1   
    36    12    13 ar  
    37    12    50 1   
    38    13    14 ar  
    39    13    63 1   
    40    14    64 1   
    41    15    25 1   
    42    15    35 1   
    43    15    65 1   
    44    15    66 1   
    45    16    35 1   
    46    16    67 1   
    47    16    68 1   
    48    17    18 1   
    49    17    69 1   
    50    18    70 1   
    51    18    71 1   
    52    19    20 ar  
    53    19    24 ar  
    54    20    21 ar  
    55    20    72 1   
    56    21    22 ar  
    57    21    73 1   
    58    22    23 ar  
    59    22    44 1   
    60    23    24 ar  
    61    23    74 1   
    62    24    75 1   
    63    25    26 1   
    64    25    27 1   
    65    25    76 1   
    66    26    77 1   
    67    26    78 1   
    68    26    79 1   
    69    27    80 1   
    70    27    81 1   
    71    27    82 1   
    72    28    34 1   
    73    28    48 1   
    74    28    83 1   
    75    29    44 1   
    76    29    49 1   
    77    29    84 1   
    78    29    85 1   
    79    30    32 1   
    80    30    45 1   
    81    30    86 1   
    82    30    87 1   
    83    31    33 1   
    84    31    46 1   
    85    31    88 1   
    86    31    89 1   
    87    32    90 1   
    88    32    91 1   
    89    32    92 1   
    90    33    93 1   
    91    33    94 1   
    92    33    95 1   
    93    34    96 1   
    94    34    97 1   
    95    34    98 1   
    96    35    50 1   
    97    36    99 1   
    98    37    50 2   
    99    38    50 2   
   100    39   100 1   
   101    45    49 1   
   102    46    49 1   
   103    47    49 2   
   104    48   101 1   
@<TRIPOS>SUBSTRUCTURE
     1 YWM         1 TEMP              0 ****  ****    0 ROOT
