@<TRIPOS>MOLECULE
YWN
   45    45     1     0     0
SMALL
bcc


@<TRIPOS>ATOM
      1 C1           0.7860    -0.3310    -0.2850 c3         1 YWN       0.210800
      2 N2          -0.5970    -0.3430     0.1210 n3         1 YWN      -0.784600
      3 C3          -1.4810     0.7310    -0.2970 c5         1 YWN       0.229500
      4 C4          -2.8240     0.2700     0.2480 c5         1 YWN       0.113100
      5 C5          -2.7850    -1.2180    -0.0880 c5         1 YWN       0.087100
      6 C6          -1.3140    -1.6130     0.1110 c5         1 YWN       0.223500
      7 C7           1.7020    -0.9970     0.7360 c3         1 YWN      -0.084400
      8 C8           3.1410    -1.0810     0.2430 c3         1 YWN      -0.077400
      9 C9           4.1030    -1.6560     1.2770 c3         1 YWN      -0.074400
     10 C10          5.5320    -1.7580     0.7640 c3         1 YWN      -0.089100
     11 C11         -1.0730     2.1070     0.2270 c3         1 YWN      -0.152400
     12 C12         -0.0750     2.8310    -0.6530 c          1 YWN       0.658100
     13 O13         -0.2160     2.9120    -1.8670 o          1 YWN      -0.612100
     14 N14          0.9460     3.4170    -0.0110 ns         1 YWN      -0.576900
     15 C15          1.9740     4.1580    -0.7020 c3         1 YWN       0.095300
     16 C18         -0.8700    -2.6370    -0.9240 c3         1 YWN       0.108400
     17 O19         -1.0100    -2.1050    -2.2220 oh         1 YWN      -0.600800
     18 O20         -3.6200    -2.0110     0.7220 oh         1 YWN      -0.595800
     19 O21         -2.8890     0.4750     1.6380 oh         1 YWN      -0.588800
     20 H11C         0.9450    -0.7810    -1.2770 h1         1 YWN       0.036200
     21 H12C         1.1130     0.7050    -0.3820 h1         1 YWN       0.036200
     22 H71C         1.6580    -0.4290     1.6700 hc         1 YWN       0.042200
     23 H72C         1.3430    -2.0040     0.9720 hc         1 YWN       0.042200
     24 H3          -1.5800     0.8030    -1.3930 h1         1 YWN       0.061700
     25 H6          -1.2120    -2.1130     1.0840 h1         1 YWN       0.076700
     26 H4          -3.6510     0.7830    -0.2620 h1         1 YWN       0.047700
     27 H111        -1.9620     2.7440     0.2440 hc         1 YWN       0.073700
     28 H112        -0.7230     2.0260     1.2570 hc         1 YWN       0.073700
     29 H5          -3.0520    -1.3270    -1.1450 h1         1 YWN       0.061700
     30 H21         -3.4240    -0.2390     2.0050 ho         1 YWN       0.416000
     31 H20         -4.5140    -1.9730     0.3680 ho         1 YWN       0.410000
     32 H181         0.1650    -2.9460    -0.7300 h1         1 YWN       0.027700
     33 H182        -1.4920    -3.5320    -0.7820 h1         1 YWN       0.027700
     34 H81C         3.1740    -1.6960    -0.6630 hc         1 YWN       0.036700
     35 H82C         3.4860    -0.0840    -0.0540 hc         1 YWN       0.036700
     36 H91C         4.0820    -1.0320     2.1760 hc         1 YWN       0.036700
     37 H92C         3.7530    -2.6450     1.5860 hc         1 YWN       0.036700
     38 H101         5.5940    -2.4090    -0.1110 hc         1 YWN       0.031367
     39 H102         5.9190    -0.7790     0.4730 hc         1 YWN       0.031367
     40 H103         6.2020    -2.1630     1.5240 hc         1 YWN       0.031367
     41 H14          1.0400     3.2850     0.9810 hn         1 YWN       0.316500
     42 H151         2.5050     3.5360    -1.4230 h1         1 YWN       0.038700
     43 H152         1.5640     5.0190    -1.2300 h1         1 YWN       0.038700
     44 H153         2.6900     4.5180     0.0320 h1         1 YWN       0.038700
     45 H19         -0.6890    -2.7590    -2.8500 ho         1 YWN       0.405000
@<TRIPOS>BOND
     1     1     2 1   
     2     1     7 1   
     3     1    20 1   
     4     1    21 1   
     5     2     3 1   
     6     2     6 1   
     7     3     4 1   
     8     3    11 1   
     9     3    24 1   
    10     4     5 1   
    11     4    19 1   
    12     4    26 1   
    13     5     6 1   
    14     5    18 1   
    15     5    29 1   
    16     6    16 1   
    17     6    25 1   
    18     7     8 1   
    19     7    22 1   
    20     7    23 1   
    21     8     9 1   
    22     8    34 1   
    23     8    35 1   
    24     9    10 1   
    25     9    36 1   
    26     9    37 1   
    27    10    38 1   
    28    10    39 1   
    29    10    40 1   
    30    11    12 1   
    31    11    27 1   
    32    11    28 1   
    33    12    13 2   
    34    12    14 1   
    35    14    15 1   
    36    14    41 1   
    37    15    42 1   
    38    15    43 1   
    39    15    44 1   
    40    16    17 1   
    41    16    32 1   
    42    16    33 1   
    43    17    45 1   
    44    18    31 1   
    45    19    30 1   
@<TRIPOS>SUBSTRUCTURE
     1 YWN         1 TEMP              0 ****  ****    0 ROOT
