@<TRIPOS>MOLECULE
YWN
   45    45     1     0     0
SMALL
No Charge or Current Charge


@<TRIPOS>ATOM
      1 C1           0.7940    -0.1850     0.0840 c3         1 YWN       0.210800
      2 N2          -0.6660    -0.3170     0.3120 n3         1 YWN      -0.784600
      3 C3          -1.5720     0.7100    -0.2760 c5         1 YWN       0.229500
      4 C4          -2.8970     0.1890     0.3760 c5         1 YWN       0.136300
      5 C5          -2.8530    -1.3010    -0.0880 c5         1 YWN       0.110300
      6 C6          -1.3060    -1.6320    -0.0810 c5         1 YWN       0.223500
      7 C7           1.6450    -1.2070     0.8710 c3         1 YWN      -0.084400
      8 C8           3.1620    -1.0050     0.6640 c3         1 YWN      -0.077400
      9 C9           4.0190    -2.0210     1.4510 c3         1 YWN      -0.074400
     10 C10          5.5330    -1.8190     1.2450 c3         1 YWN      -0.089100
     11 C11         -1.2600     2.1810     0.0950 c3         1 YWN      -0.152400
     12 C12         -0.3390     2.8440    -0.9250 c          1 YWN       0.591100
     13 O13         -0.6790     3.0490    -2.0820 o          1 YWN      -0.612100
     14 N14          0.8860     3.2510    -0.4450 ns         1 YWN      -0.509900
     15 C15          1.9130     3.9090    -1.2550 c3         1 YWN       0.095300
     16 C18         -0.8520    -2.2770    -1.4400 c3         1 YWN       0.131600
     17 O19         -1.0640    -1.4150    -2.5740 oh         1 YWN      -0.663000
     18 O20         -3.6380    -2.1330     0.7790 oh         1 YWN      -0.658000
     19 O21         -2.8260     0.2720     1.8100 oh         1 YWN      -0.651000
     20 H11C         1.0200    -0.2660    -0.9870 h1         1 YWN       0.036200
     21 H12C         1.1230     0.8090     0.4070 h1         1 YWN       0.036200
     22 H71C         1.4100    -1.1140     1.9380 hc         1 YWN       0.042200
     23 H72C         1.3790    -2.2270     0.5730 hc         1 YWN       0.042200
     24 H3          -1.6380     0.6470    -1.3700 h1         1 YWN       0.061700
     25 H6          -1.0940    -2.3810     0.6940 h1         1 YWN       0.076700
     26 H4          -3.7830     0.7120    -0.0080 h1         1 YWN       0.047700
     27 H111        -2.1980     2.7470     0.0860 hc         1 YWN       0.073700
     28 H112        -0.8300     2.2380     1.1010 hc         1 YWN       0.073700
     29 H5          -3.2450    -1.3680    -1.1120 h1         1 YWN       0.061700
     30 H21         -1.8670     0.0990     1.9770 ho         1 YWN       0.455000
     31 H20         -3.7000    -1.6150     1.6170 ho         1 YWN       0.449000
     32 H181         0.2090    -2.5480    -1.3700 h1         1 YWN       0.027700
     33 H182        -1.4110    -3.2130    -1.5750 h1         1 YWN       0.027700
     34 H81C         3.3940    -1.0900    -0.4050 hc         1 YWN       0.036700
     35 H82C         3.4360     0.0120     0.9720 hc         1 YWN       0.036700
     36 H91C         3.7910    -1.9380     2.5210 hc         1 YWN       0.036700
     37 H92C         3.7500    -3.0390     1.1440 hc         1 YWN       0.036700
     38 H101         5.7990    -1.9320     0.1870 hc         1 YWN       0.031367
     39 H102         5.8400    -0.8200     1.5760 hc         1 YWN       0.031367
     40 H103         6.0990    -2.5610     1.8220 hc         1 YWN       0.031367
     41 H14          1.0800     3.0720     0.5330 hn         1 YWN       0.316500
     42 H151         2.2010     3.2550    -2.0880 h1         1 YWN       0.038700
     43 H152         1.5210     4.8550    -1.6510 h1         1 YWN       0.038700
     44 H153         2.7940     4.1140    -0.6340 h1         1 YWN       0.038700
     45 H19         -0.7140    -1.8850    -3.3630 ho         1 YWN       0.444000
@<TRIPOS>BOND
     1     1     2 1   
     2     1     7 1   
     3     1    20 1   
     4     1    21 1   
     5     2     3 1   
     6     2     6 1   
     7     3     4 1   
     8     3    11 1   
     9     3    24 1   
    10     4     5 1   
    11     4    19 1   
    12     4    26 1   
    13     5     6 1   
    14     5    18 1   
    15     5    29 1   
    16     6    16 1   
    17     6    25 1   
    18     7     8 1   
    19     7    22 1   
    20     7    23 1   
    21     8     9 1   
    22     8    34 1   
    23     8    35 1   
    24     9    10 1   
    25     9    36 1   
    26     9    37 1   
    27    10    38 1   
    28    10    39 1   
    29    10    40 1   
    30    11    12 1   
    31    11    27 1   
    32    11    28 1   
    33    12    13 2   
    34    12    14 1   
    35    14    15 1   
    36    14    41 1   
    37    15    42 1   
    38    15    43 1   
    39    15    44 1   
    40    16    17 1   
    41    16    32 1   
    42    16    33 1   
    43    17    45 1   
    44    18    31 1   
    45    19    30 1   
@<TRIPOS>SUBSTRUCTURE
     1 YWN         1 TEMP              0 ****  ****    0 ROOT
