@<TRIPOS>MOLECULE
YWO
   40    41     1     0     0
SMALL
bcc


@<TRIPOS>ATOM
      1 C1          -4.9570     0.5200     0.1910 ca         1 YWO      -0.033000
      2 N1          -4.2260    -1.7950     0.1360 no         1 YWO       0.323200
      3 O1          -1.6070    -0.8380    -0.2290 os         1 YWO      -0.219200
      4 C2          -3.9110    -0.3870     0.0570 ca         1 YWO      -0.221200
      5 N2           4.6410    -1.5440    -0.8400 n8         1 YWO      -0.877800
      6 O2          -5.1770    -2.1180     0.8140 o          1 YWO      -0.204500
      7 C3          -2.6000     0.0650    -0.1420 ca         1 YWO       0.212100
      8 N3           6.6000     0.2180     1.5040 nt         1 YWO      -0.674000
      9 O3          -3.5470    -2.5780    -0.4850 o          1 YWO      -0.204500
     10 C4          -2.3790     1.4370    -0.2080 ca         1 YWO      -0.227000
     11 O4           6.8380     0.1540    -0.7400 o          1 YWO      -0.600100
     12 C5          -3.4220     2.3480    -0.0960 ca         1 YWO       0.006700
     13 C6          -4.7190     1.8740     0.1060 ca         1 YWO      -0.176000
     14 C7          -0.2970    -0.4080    -0.1960 ca         1 YWO       0.087100
     15 C8           0.3050    -0.1360     1.0230 ca         1 YWO      -0.123500
     16 C9           1.6370     0.2470     1.0460 ca         1 YWO      -0.120500
     17 C10          2.3750     0.3670    -0.1310 ca         1 YWO      -0.080300
     18 C11          1.7430     0.0830    -1.3380 ca         1 YWO      -0.120500
     19 C12          0.4080    -0.3010    -1.3800 ca         1 YWO      -0.123500
     20 C13         -3.1570     3.8170    -0.2110 c3         1 YWO      -0.059800
     21 C14          3.8290     0.7320    -0.0860 c3         1 YWO      -0.075100
     22 C15          4.7200    -0.5090     0.1660 c3         1 YWO       0.090500
     23 C16          6.1630    -0.0290     0.2630 c          1 YWO       0.677100
     24 H1          -5.9630     0.1590     0.3480 ha         1 YWO       0.168000
     25 HN2          3.6850    -1.8620    -0.9360 hn         1 YWO       0.357300
     26 HN2A         4.9180    -1.1730    -1.7410 hn         1 YWO       0.357300
     27 HN3          7.5160     0.6090     1.6580 hn         1 YWO       0.314500
     28 HN3A         6.0310     0.0420     2.3130 hn         1 YWO       0.314500
     29 H4          -1.3730     1.8080    -0.3520 ha         1 YWO       0.153000
     30 H6          -5.5440     2.5680     0.1960 ha         1 YWO       0.147000
     31 H8          -0.2580    -0.2250     1.9440 ha         1 YWO       0.153500
     32 H9           2.1060     0.4600     1.9990 ha         1 YWO       0.137500
     33 H11          2.2940     0.1760    -2.2660 ha         1 YWO       0.137500
     34 H12         -0.0730    -0.5160    -2.3250 ha         1 YWO       0.153500
     35 H13         -3.3650     4.1620    -1.2260 hc         1 YWO       0.053033
     36 H13A        -3.7960     4.3870     0.4620 hc         1 YWO       0.053033
     37 H13B        -2.1190     4.0590     0.0130 hc         1 YWO       0.053033
     38 H14          4.1310     1.1940    -1.0290 hc         1 YWO       0.062700
     39 H14A         4.0030     1.4680     0.7040 hc         1 YWO       0.062700
     40 H15          4.4210    -0.9450     1.1240 h1         1 YWO       0.064700
@<TRIPOS>BOND
     1     1     4 ar  
     2     1    13 ar  
     3     1    24 1   
     4     2     4 1   
     5     2     6 1   
     6     2     9 1   
     7     3     7 1   
     8     3    14 1   
     9     4     7 ar  
    10     5    22 1   
    11     5    25 1   
    12     5    26 1   
    13     7    10 ar  
    14     8    23 1   
    15     8    27 1   
    16     8    28 1   
    17    10    12 ar  
    18    10    29 1   
    19    11    23 2   
    20    12    13 ar  
    21    12    20 1   
    22    13    30 1   
    23    14    15 ar  
    24    14    19 ar  
    25    15    16 ar  
    26    15    31 1   
    27    16    17 ar  
    28    16    32 1   
    29    17    18 ar  
    30    17    21 1   
    31    18    19 ar  
    32    18    33 1   
    33    19    34 1   
    34    20    35 1   
    35    20    36 1   
    36    20    37 1   
    37    21    22 1   
    38    21    38 1   
    39    21    39 1   
    40    22    23 1   
    41    22    40 1   
@<TRIPOS>SUBSTRUCTURE
     1 YWO         1 TEMP              0 ****  ****    0 ROOT
