@<TRIPOS>MOLECULE
YWO
   40    41     1     0     0
SMALL
No Charge or Current Charge


@<TRIPOS>ATOM
      1 C1          -4.7410     0.3700     0.6930 ca         1 YWO      -0.015000
      2 N1          -3.9100    -1.8600    -0.0900 no         1 YWO       0.703200
      3 O1          -1.6450    -0.4420    -1.1670 os         1 YWO      -0.219200
      4 C2          -3.7570    -0.3850     0.0170 ca         1 YWO      -0.221200
      5 N2           4.3350    -1.9820     0.0430 n8         1 YWO      -0.988200
      6 O2          -4.4580    -2.4470     0.8510 o          1 YWO      -0.394500
      7 C3          -2.6360     0.2740    -0.5300 ca         1 YWO       0.212100
      8 N3           6.4250     0.8450     1.5180 nt         1 YWO      -0.607000
      9 O3          -3.6450    -2.4000    -1.1720 o          1 YWO      -0.394500
     10 C4          -2.5240     1.6740    -0.4280 ca         1 YWO      -0.209000
     11 O4           7.0860    -0.9120     0.3170 o          1 YWO      -0.600100
     12 C5          -3.5070     2.4240     0.2390 ca         1 YWO       0.006700
     13 C6          -4.6130     1.7650     0.8000 ca         1 YWO      -0.158000
     14 C7          -0.3030    -0.2100    -0.9600 ca         1 YWO       0.087100
     15 C8           0.1870     0.1760     0.3040 ca         1 YWO      -0.105500
     16 C9           1.5640     0.3930     0.4870 ca         1 YWO      -0.102500
     17 C10          2.4620     0.2170    -0.5850 ca         1 YWO      -0.080300
     18 C11          1.9660    -0.1790    -1.8430 ca         1 YWO      -0.102500
     19 C12          0.5890    -0.3970    -2.0270 ca         1 YWO      -0.105500
     20 C13         -3.3750     3.9350     0.3470 c3         1 YWO      -0.059800
     21 C14          3.9570     0.4570    -0.3810 c3         1 YWO      -0.075100
     22 C15          4.6380    -0.5940     0.5360 c3         1 YWO       0.090500
     23 C16          6.1610    -0.2520     0.7690 c          1 YWO       0.610100
     24 H1          -5.6120    -0.1190     1.1290 ha         1 YWO       0.150000
     25 HN2          3.3520    -2.0140    -0.2520 hn         1 YWO       0.412500
     26 HN2A         4.8530    -2.1460    -0.8300 hn         1 YWO       0.412500
     27 HN3          7.3860     1.1010     1.6940 hn         1 YWO       0.314500
     28 HN3A         5.6700     1.3940     1.9020 hn         1 YWO       0.314500
     29 H4          -1.6680     2.1780    -0.8670 ha         1 YWO       0.135000
     30 H6          -5.3820     2.3350     1.3180 ha         1 YWO       0.129000
     31 H8          -0.4920     0.3050     1.1430 ha         1 YWO       0.135500
     32 H9           1.9330     0.6980     1.4640 ha         1 YWO       0.119500
     33 H11          2.6460    -0.3210    -2.6810 ha         1 YWO       0.119500
     34 H12          0.2120    -0.7050    -2.9990 ha         1 YWO       0.135500
     35 H13         -3.8260     4.4290    -0.5210 hc         1 YWO       0.053033
     36 H13A        -3.8720     4.3170     1.2470 hc         1 YWO       0.053033
     37 H13B        -2.3230     4.2410     0.3980 hc         1 YWO       0.053033
     38 H14          4.4770     0.4760    -1.3470 hc         1 YWO       0.062700
     39 H14A         4.1000     1.4550     0.0500 hc         1 YWO       0.062700
     40 H15          4.1660    -0.5050     1.5240 h1         1 YWO       0.064700
@<TRIPOS>BOND
     1     1     4 ar  
     2     1    13 ar  
     3     1    24 1   
     4     2     4 1   
     5     2     6 1   
     6     2     9 1   
     7     3     7 1   
     8     3    14 1   
     9     4     7 ar  
    10     5    22 1   
    11     5    25 1   
    12     5    26 1   
    13     7    10 ar  
    14     8    23 1   
    15     8    27 1   
    16     8    28 1   
    17    10    12 ar  
    18    10    29 1   
    19    11    23 2   
    20    12    13 ar  
    21    12    20 1   
    22    13    30 1   
    23    14    15 ar  
    24    14    19 ar  
    25    15    16 ar  
    26    15    31 1   
    27    16    17 ar  
    28    16    32 1   
    29    17    18 ar  
    30    17    21 1   
    31    18    19 ar  
    32    18    33 1   
    33    19    34 1   
    34    20    35 1   
    35    20    36 1   
    36    20    37 1   
    37    21    22 1   
    38    21    38 1   
    39    21    39 1   
    40    22    23 1   
    41    22    40 1   
@<TRIPOS>SUBSTRUCTURE
     1 YWO         1 TEMP              0 ****  ****    0 ROOT
