@<TRIPOS>MOLECULE
YWP
  101   104     1     0     0
SMALL
abcg2


@<TRIPOS>ATOM
      1 C13         20.1690    -0.5680    14.7780 c3         1 YWP       0.153300
      2 C15         19.8400    -0.1780    16.2270 c3         1 YWP       0.095700
      3 C17         21.7010     0.3170    17.7450 c          1 YWP       0.639100
      4 C20         23.4350     1.1240    19.1560 c5         1 YWP       0.159300
      5 C21         24.5620     2.1160    18.9410 c5         1 YWP       0.153600
      6 C24         23.4950     2.9420    20.7730 c5         1 YWP       0.370300
      7 C26         21.2350     3.1750    20.5330 c5         1 YWP       0.154600
      8 C28         18.4700     0.4930    16.3920 c3         1 YWP      -0.035100
      9 C01         16.0340    -6.3730    13.2580 ca         1 YWP      -0.074300
     10 C02         15.7760    -5.0140    13.4240 ca         1 YWP      -0.120500
     11 C03         16.5870    -4.2340    14.2310 ca         1 YWP      -0.017500
     12 C04         17.6730    -4.8170    14.8740 ca         1 YWP      -0.300500
     13 C05         17.9480    -6.1680    14.7200 ca         1 YWP      -0.017500
     14 C06         17.1260    -6.9360    13.9100 ca         1 YWP      -0.120500
     15 C11         20.6130    -3.8690    14.0130 c3         1 YWP       0.211800
     16 C12         19.3460    -1.7430    14.2440 c3         1 YWP       0.222800
     17 C23         22.9430     1.5090    20.5600 c5         1 YWP      -0.146700
     18 C25         21.4410     1.6870    20.7790 c5         1 YWP      -0.096400
     19 C29         18.2230     0.8880    17.8210 ca         1 YWP      -0.114300
     20 C30         18.0770    -0.0670    18.8210 ca         1 YWP      -0.068500
     21 C31         17.9330     0.2890    20.1570 ca         1 YWP      -0.164000
     22 C32         17.9400     1.6330    20.5100 ca         1 YWP       0.128100
     23 C33         18.0450     2.6050    19.5210 ca         1 YWP      -0.164000
     24 C34         18.1910     2.2280    18.1980 ca         1 YWP      -0.068500
     25 C36         22.0640    -3.4000    13.9590 c3         1 YWP      -0.064700
     26 C37         22.7040    -3.3890    15.3410 c3         1 YWP      -0.091600
     27 C38         22.8300    -4.3080    13.0030 c3         1 YWP      -0.091600
     28 C39         15.1200    -7.2460    12.4240 c3         1 YWP       0.212600
     29 C40         18.0680     1.1780    22.8440 c3         1 YWP      -0.218400
     30 C44         16.8820     4.3250    24.0930 c3         1 YWP       0.227600
     31 C45         18.0070     0.0460    25.7790 c3         1 YWP       0.227600
     32 C46         15.8390     4.9730    24.9700 c3         1 YWP      -0.116600
     33 C47         16.5890     0.2850    26.2450 c3         1 YWP      -0.116600
     34 C49         13.9960    -7.7990    13.2880 c3         1 YWP      -0.086100
     35 N10         19.7470    -3.0180    14.8350 n3         1 YWP      -0.750500
     36 N16         20.8720     0.6930    16.7560 ns         1 YWP      -0.504900
     37 O08         19.5410    -4.6770    16.6990 o          1 YWP      -0.535500
     38 O09         17.8980    -2.7900    16.5060 o          1 YWP      -0.535500
     39 O14         19.9590     0.4960    13.8770 oh         1 YWP      -0.668000
     40 O18         21.7740    -0.7980    18.2200 o          1 YWP      -0.542000
     41 O19         22.4590     1.3500    18.1410 os         1 YWP      -0.452100
     42 O22         24.1360     3.3040    19.5710 os         1 YWP      -0.462000
     43 O27         22.4240     3.7810    21.0270 os         1 YWP      -0.425000
     44 O35         17.8640     2.0860    21.7860 os         1 YWP      -0.334100
     45 O42         17.2120     3.0430    24.6540 os         1 YWP      -0.613900
     46 O43         18.7350     1.2570    25.5050 os         1 YWP      -0.613900
     47 O48         19.7370     3.0560    24.0020 o          1 YWP      -0.541000
     48 O50         14.5310    -6.5450    11.3550 oh         1 YWP      -0.651000
     49 P41         18.5360     2.2310    24.2620 p5         1 YWP       1.384800
     50 S07         18.7300    -3.8010    15.8700 sy         1 YWP       1.168600
     51 H131        21.2230    -0.8720    14.7740 h1         1 YWP       0.054700
     52 H151        19.8640    -1.0860    16.8280 h1         1 YWP       0.098700
     53 H201        23.7870     0.0940    19.1120 h1         1 YWP       0.081700
     54 H212        24.7720     2.3170    17.8900 h1         1 YWP       0.057700
     55 H211        25.4780     1.7230    19.4020 h1         1 YWP       0.057700
     56 H241        24.1980     3.0280    21.6110 h2         1 YWP       0.080700
     57 H261        20.3910     3.5880    21.0820 h1         1 YWP       0.058200
     58 H262        21.0900     3.3930    19.4700 h1         1 YWP       0.058200
     59 H282        18.4200     1.3780    15.7540 hc         1 YWP       0.063700
     60 H281        17.6940    -0.1900    16.0440 hc         1 YWP       0.063700
     61 H021        14.9320    -4.5560    12.9260 ha         1 YWP       0.125000
     62 H031        16.3580    -3.1840    14.3580 ha         1 YWP       0.134500
     63 H051        18.7900    -6.6260    15.2210 ha         1 YWP       0.134500
     64 H061        17.3400    -7.9910    13.7860 ha         1 YWP       0.125000
     65 H111        20.2000    -3.9220    12.9990 h1         1 YWP       0.047200
     66 H112        20.6050    -4.8870    14.4080 h1         1 YWP       0.047200
     67 H122        18.2790    -1.5590    14.3730 h1         1 YWP       0.063700
     68 H121        19.5120    -1.8110    13.1660 h1         1 YWP       0.063700
     69 H231        23.3720     0.8120    21.2800 hc         1 YWP       0.074700
     70 H251        21.1940     1.4490    21.8150 hc         1 YWP       0.062200
     71 H252        20.8100     1.0620    20.1500 hc         1 YWP       0.062200
     72 H301        18.0790    -1.1190    18.5630 ha         1 YWP       0.124000
     73 H311        17.8260    -0.4920    20.8990 ha         1 YWP       0.122500
     74 H331        18.0400     3.6520    19.7970 ha         1 YWP       0.122500
     75 H341        18.2940     2.9980    17.4420 ha         1 YWP       0.124000
     76 H361        22.0920    -2.3870    13.5440 hc         1 YWP       0.048700
     77 H372        22.1790    -2.7300    16.0330 hc         1 YWP       0.039867
     78 H371        22.7070    -4.3930    15.7720 hc         1 YWP       0.039867
     79 H373        23.7390    -3.0500    15.2830 hc         1 YWP       0.039867
     80 H381        23.8710    -3.9930    12.9180 hc         1 YWP       0.039867
     81 H382        22.8240    -5.3420    13.3550 hc         1 YWP       0.039867
     82 H383        22.3970    -4.2930    12.0010 hc         1 YWP       0.039867
     83 H391        15.7140    -8.0930    12.0530 h1         1 YWP       0.036700
     84 H401        17.1720     0.5800    23.0440 h1         1 YWP       0.065700
     85 H402        18.8950     0.4860    22.6460 h1         1 YWP       0.065700
     86 H441        16.5030     4.1890    23.0790 h1         1 YWP       0.046200
     87 H442        17.7780     4.9470    24.0380 h1         1 YWP       0.046200
     88 H452        18.5820    -0.4510    26.5590 h1         1 YWP       0.046200
     89 H451        18.0260    -0.6050    24.9030 h1         1 YWP       0.046200
     90 H461        15.5640     5.9390    24.5460 hc         1 YWP       0.049200
     91 H462        14.9360     4.3650    25.0310 hc         1 YWP       0.049200
     92 H463        16.2150     5.1420    25.9780 hc         1 YWP       0.049200
     93 H473        16.1580    -0.6700    26.5440 hc         1 YWP       0.049200
     94 H472        16.5610     0.9510    27.1070 hc         1 YWP       0.049200
     95 H471        15.9580     0.7010    25.4610 hc         1 YWP       0.049200
     96 H493        14.4020    -8.3720    14.1210 hc         1 YWP       0.049033
     97 H491        13.3870    -6.9920    13.6990 hc         1 YWP       0.049033
     98 H492        13.3510    -8.4590    12.7070 hc         1 YWP       0.049033
     99 H161        20.8550     1.6690    16.4980 hn         1 YWP       0.323500
    100 H141        20.6260     1.1730    14.0310 ho         1 YWP       0.452000
    101 H501        15.2260    -6.2690    10.7490 ho         1 YWP       0.446000
@<TRIPOS>BOND
     1     1     2 1   
     2     1    16 1   
     3     1    39 1   
     4     1    51 1   
     5     2     8 1   
     6     2    36 1   
     7     2    52 1   
     8     3    36 1   
     9     3    40 2   
    10     3    41 1   
    11     4     5 1   
    12     4    17 1   
    13     4    41 1   
    14     4    53 1   
    15     5    42 1   
    16     5    54 1   
    17     5    55 1   
    18     6    17 1   
    19     6    42 1   
    20     6    43 1   
    21     6    56 1   
    22     7    18 1   
    23     7    43 1   
    24     7    57 1   
    25     7    58 1   
    26     8    19 1   
    27     8    59 1   
    28     8    60 1   
    29     9    10 ar  
    30     9    14 ar  
    31     9    28 1   
    32    10    11 ar  
    33    10    61 1   
    34    11    12 ar  
    35    11    62 1   
    36    12    13 ar  
    37    12    50 1   
    38    13    14 ar  
    39    13    63 1   
    40    14    64 1   
    41    15    25 1   
    42    15    35 1   
    43    15    65 1   
    44    15    66 1   
    45    16    35 1   
    46    16    67 1   
    47    16    68 1   
    48    17    18 1   
    49    17    69 1   
    50    18    70 1   
    51    18    71 1   
    52    19    20 ar  
    53    19    24 ar  
    54    20    21 ar  
    55    20    72 1   
    56    21    22 ar  
    57    21    73 1   
    58    22    23 ar  
    59    22    44 1   
    60    23    24 ar  
    61    23    74 1   
    62    24    75 1   
    63    25    26 1   
    64    25    27 1   
    65    25    76 1   
    66    26    77 1   
    67    26    78 1   
    68    26    79 1   
    69    27    80 1   
    70    27    81 1   
    71    27    82 1   
    72    28    34 1   
    73    28    48 1   
    74    28    83 1   
    75    29    44 1   
    76    29    49 1   
    77    29    84 1   
    78    29    85 1   
    79    30    32 1   
    80    30    45 1   
    81    30    86 1   
    82    30    87 1   
    83    31    33 1   
    84    31    46 1   
    85    31    88 1   
    86    31    89 1   
    87    32    90 1   
    88    32    91 1   
    89    32    92 1   
    90    33    93 1   
    91    33    94 1   
    92    33    95 1   
    93    34    96 1   
    94    34    97 1   
    95    34    98 1   
    96    35    50 1   
    97    36    99 1   
    98    37    50 2   
    99    38    50 2   
   100    39   100 1   
   101    45    49 1   
   102    46    49 1   
   103    47    49 2   
   104    48   101 1   
@<TRIPOS>SUBSTRUCTURE
     1 YWP         1 TEMP              0 ****  ****    0 ROOT
