@<TRIPOS>MOLECULE
YWP
  101   104     1     0     0
SMALL
No Charge or Current Charge


@<TRIPOS>ATOM
      1 C13         20.1840    -1.0590    15.0400 c3         1 YWP       0.153300
      2 C15         19.9880    -0.4470    16.4620 c3         1 YWP       0.095700
      3 C17         22.1040     0.3700    17.5480 c          1 YWP       0.639100
      4 C20         23.8670     1.5510    18.6370 c5         1 YWP       0.159300
      5 C21         24.7770     2.7480    18.2490 c5         1 YWP       0.153600
      6 C24         23.8750     3.4150    20.2680 c5         1 YWP       0.370300
      7 C26         21.5670     3.3750    20.1150 c5         1 YWP       0.154600
      8 C28         18.5750     0.1410    16.7410 c3         1 YWP      -0.035100
      9 C01         15.7460    -5.8080    13.0150 ca         1 YWP      -0.074300
     10 C02         15.5100    -4.5520    13.6120 ca         1 YWP      -0.120500
     11 C03         16.3330    -4.0880    14.6530 ca         1 YWP      -0.017500
     12 C04         17.4100    -4.8760    15.1070 ca         1 YWP      -0.300500
     13 C05         17.6460    -6.1350    14.5190 ca         1 YWP      -0.017500
     14 C06         16.8200    -6.5930    13.4790 ca         1 YWP      -0.120500
     15 C11         20.6200    -4.4970    14.8530 c3         1 YWP       0.211800
     16 C12         19.3450    -2.3500    14.7910 c3         1 YWP       0.222800
     17 C23         23.4850     1.9040    20.1340 c5         1 YWP      -0.146700
     18 C25         21.9400     1.9090    20.4300 c5         1 YWP      -0.096400
     19 C29         18.4610     0.7560    18.1340 ca         1 YWP      -0.114300
     20 C30         18.6030    -0.0510    19.2790 ca         1 YWP      -0.068500
     21 C31         18.5360     0.5170    20.5630 ca         1 YWP      -0.164000
     22 C32         18.3200     1.9030    20.7110 ca         1 YWP       0.128100
     23 C33         18.1620     2.7040    19.5700 ca         1 YWP      -0.164000
     24 C34         18.2350     2.1380    18.2870 ca         1 YWP      -0.068500
     25 C36         22.0140    -3.9730    14.4150 c3         1 YWP      -0.064700
     26 C37         22.8960    -3.5820    15.6260 c3         1 YWP      -0.091600
     27 C38         22.7390    -5.0090    13.5250 c3         1 YWP      -0.091600
     28 C39         14.8540    -6.3210    11.8840 c3         1 YWP       0.212600
     29 C40         18.4810     1.7920    23.1810 c3         1 YWP      -0.218400
     30 C44         15.8440     3.0860    23.8770 c3         1 YWP       0.227600
     31 C45         18.3570     0.4570    25.9780 c3         1 YWP       0.227600
     32 C46         14.4910     3.5130    24.4630 c3         1 YWP      -0.116600
     33 C47         16.8300     0.2580    26.0340 c3         1 YWP      -0.116600
     34 C49         13.3870    -6.4970    12.3220 c3         1 YWP      -0.086100
     35 N10         19.7600    -3.5370    15.5990 n3         1 YWP      -0.750500
     36 N16         21.0120     0.5690    16.7540 ns         1 YWP      -0.504900
     37 O08         19.0530    -5.4310    17.1510 o          1 YWP      -0.535500
     38 O09         17.7980    -3.2180    17.1840 o          1 YWP      -0.535500
     39 O14         19.8940    -0.0790    14.0220 oh         1 YWP      -0.668000
     40 O18         22.4260    -0.7000    18.0410 o          1 YWP      -0.542000
     41 O19         22.7230     1.5740    17.7330 os         1 YWP      -0.452100
     42 O22         24.1950     3.8650    18.9410 os         1 YWP      -0.462000
     43 O27         22.6760     4.0930    20.6840 os         1 YWP      -0.425000
     44 O35         18.2680     2.5180    21.9450 os         1 YWP      -0.334100
     45 O42         16.8130     3.2160    24.9240 os         1 YWP      -0.613900
     46 O43         18.6790     1.8600    25.9320 os         1 YWP      -0.613900
     47 O48         19.2730     4.0760    24.6520 o          1 YWP      -0.541000
     48 O50         14.9060    -5.4190    10.7760 oh         1 YWP      -0.651000
     49 P41         18.3840     2.8780    24.6990 p5         1 YWP       1.384800
     50 S07         18.4730    -4.2860    16.4400 sy         1 YWP       1.168600
     51 H131        21.2410    -1.3370    14.9610 h1         1 YWP       0.054700
     52 H151        20.1310    -1.2720    17.1730 h1         1 YWP       0.098700
     53 H201        24.4220     0.6070    18.5400 h1         1 YWP       0.081700
     54 H212        24.7990     2.9390    17.1680 h1         1 YWP       0.057700
     55 H211        25.8060     2.6000    18.6040 h1         1 YWP       0.057700
     56 H241        24.7100     3.5860    20.9610 h2         1 YWP       0.080700
     57 H261        20.6290     3.6920    20.5890 h1         1 YWP       0.058200
     58 H262        21.5110     3.5730    19.0360 h1         1 YWP       0.058200
     59 H282        18.3400     0.8930    15.9780 hc         1 YWP       0.063700
     60 H281        17.8180    -0.6420    16.6300 hc         1 YWP       0.063700
     61 H021        14.6880    -3.9300    13.2670 ha         1 YWP       0.125000
     62 H031        16.1260    -3.1170    15.1000 ha         1 YWP       0.134500
     63 H051        18.4670    -6.7620    14.8630 ha         1 YWP       0.134500
     64 H061        17.0170    -7.5670    13.0350 ha         1 YWP       0.125000
     65 H111        20.0860    -4.8420    13.9580 h1         1 YWP       0.047200
     66 H112        20.8120    -5.3900    15.4620 h1         1 YWP       0.047200
     67 H122        18.2950    -2.0900    14.9670 h1         1 YWP       0.063700
     68 H121        19.4020    -2.5940    13.7210 h1         1 YWP       0.063700
     69 H231        24.0400     1.2810    20.8440 hc         1 YWP       0.074700
     70 H251        21.7510     1.7000    21.4890 hc         1 YWP       0.062200
     71 H252        21.3470     1.1810    19.8720 hc         1 YWP       0.062200
     72 H301        18.7730    -1.1210    19.1740 ha         1 YWP       0.124000
     73 H311        18.6600    -0.1290    21.4270 ha         1 YWP       0.122500
     74 H331        17.9940     3.7720    19.6820 ha         1 YWP       0.122500
     75 H341        18.1230     2.7770    17.4130 ha         1 YWP       0.124000
     76 H361        21.8710    -3.0830    13.7930 hc         1 YWP       0.048700
     77 H372        22.3920    -2.8460    16.2620 hc         1 YWP       0.039867
     78 H371        23.1200    -4.4610    16.2440 hc         1 YWP       0.039867
     79 H373        23.8450    -3.1470    15.2910 hc         1 YWP       0.039867
     80 H381        23.7050    -4.6180    13.1820 hc         1 YWP       0.039867
     81 H382        22.9220    -5.9400    14.0760 hc         1 YWP       0.039867
     82 H383        22.1380    -5.2460    12.6390 hc         1 YWP       0.039867
     83 H391        15.2240    -7.3060    11.5680 h1         1 YWP       0.036700
     84 H401        17.7450     0.9890    23.2910 h1         1 YWP       0.065700
     85 H402        19.4860     1.3530    23.2010 h1         1 YWP       0.065700
     86 H441        15.7670     2.0520    23.5170 h1         1 YWP       0.046200
     87 H442        16.0920     3.7360    23.0270 h1         1 YWP       0.046200
     88 H452        18.7950     0.0150    26.8830 h1         1 YWP       0.046200
     89 H451        18.7760    -0.0850    25.1210 h1         1 YWP       0.046200
     90 H461        13.7070     3.4390    23.7010 hc         1 YWP       0.049200
     91 H462        14.2160     2.8670    25.3050 hc         1 YWP       0.049200
     92 H463        14.5330     4.5500    24.8160 hc         1 YWP       0.049200
     93 H473        16.6010    -0.7800    26.3030 hc         1 YWP       0.049200
     94 H472        16.3790     0.9110    26.7900 hc         1 YWP       0.049200
     95 H471        16.3600     0.4560    25.0660 hc         1 YWP       0.049200
     96 H493        13.3240    -7.1800    13.1760 hc         1 YWP       0.049033
     97 H491        12.9420    -5.5380    12.6140 hc         1 YWP       0.049033
     98 H492        12.7900    -6.9180    11.5040 hc         1 YWP       0.049033
     99 H161        20.8490     1.5270    16.4740 hn         1 YWP       0.323500
    100 H141        20.5680     0.6310    14.1080 ho         1 YWP       0.452000
    101 H501        15.8580    -5.2520    10.6010 ho         1 YWP       0.446000
@<TRIPOS>BOND
     1     1     2 1   
     2     1    16 1   
     3     1    39 1   
     4     1    51 1   
     5     2     8 1   
     6     2    36 1   
     7     2    52 1   
     8     3    36 1   
     9     3    40 2   
    10     3    41 1   
    11     4     5 1   
    12     4    17 1   
    13     4    41 1   
    14     4    53 1   
    15     5    42 1   
    16     5    54 1   
    17     5    55 1   
    18     6    17 1   
    19     6    42 1   
    20     6    43 1   
    21     6    56 1   
    22     7    18 1   
    23     7    43 1   
    24     7    57 1   
    25     7    58 1   
    26     8    19 1   
    27     8    59 1   
    28     8    60 1   
    29     9    10 ar  
    30     9    14 ar  
    31     9    28 1   
    32    10    11 ar  
    33    10    61 1   
    34    11    12 ar  
    35    11    62 1   
    36    12    13 ar  
    37    12    50 1   
    38    13    14 ar  
    39    13    63 1   
    40    14    64 1   
    41    15    25 1   
    42    15    35 1   
    43    15    65 1   
    44    15    66 1   
    45    16    35 1   
    46    16    67 1   
    47    16    68 1   
    48    17    18 1   
    49    17    69 1   
    50    18    70 1   
    51    18    71 1   
    52    19    20 ar  
    53    19    24 ar  
    54    20    21 ar  
    55    20    72 1   
    56    21    22 ar  
    57    21    73 1   
    58    22    23 ar  
    59    22    44 1   
    60    23    24 ar  
    61    23    74 1   
    62    24    75 1   
    63    25    26 1   
    64    25    27 1   
    65    25    76 1   
    66    26    77 1   
    67    26    78 1   
    68    26    79 1   
    69    27    80 1   
    70    27    81 1   
    71    27    82 1   
    72    28    34 1   
    73    28    48 1   
    74    28    83 1   
    75    29    44 1   
    76    29    49 1   
    77    29    84 1   
    78    29    85 1   
    79    30    32 1   
    80    30    45 1   
    81    30    86 1   
    82    30    87 1   
    83    31    33 1   
    84    31    46 1   
    85    31    88 1   
    86    31    89 1   
    87    32    90 1   
    88    32    91 1   
    89    32    92 1   
    90    33    93 1   
    91    33    94 1   
    92    33    95 1   
    93    34    96 1   
    94    34    97 1   
    95    34    98 1   
    96    35    50 1   
    97    36    99 1   
    98    37    50 2   
    99    38    50 2   
   100    39   100 1   
   101    45    49 1   
   102    46    49 1   
   103    47    49 2   
   104    48   101 1   
@<TRIPOS>SUBSTRUCTURE
     1 YWP         1 TEMP              0 ****  ****    0 ROOT
