@<TRIPOS>MOLECULE
YWS
  104   107     1     0     0
SMALL
No Charge or Current Charge


@<TRIPOS>ATOM
      1 C13         20.1250    -1.0240    15.0520 c3         1 YWS       0.154300
      2 C15         19.9240    -0.3950    16.4660 c3         1 YWS       0.094700
      3 C17         22.0550     0.3950    17.5400 c          1 YWS       0.640100
      4 C20         23.8260     1.5540    18.6380 c5         1 YWS       0.159300
      5 C21         24.7470     2.7460    18.2600 c5         1 YWS       0.153600
      6 C24         23.8470     3.4060    20.2820 c5         1 YWS       0.371300
      7 C26         21.5400     3.3880    20.1250 c5         1 YWS       0.155600
      8 C28         18.5170     0.2130    16.7280 c3         1 YWS      -0.035100
      9 C01         15.6810    -5.9040    13.1870 ca         1 YWS      -0.075300
     10 C02         15.4530    -4.6190    13.7190 ca         1 YWS      -0.119500
     11 C03         16.2820    -4.1050    14.7310 ca         1 YWS      -0.019500
     12 C04         17.3580    -4.8720    15.2210 ca         1 YWS      -0.301500
     13 C05         17.5870    -6.1610    14.6980 ca         1 YWS      -0.019500
     14 C06         16.7550    -6.6690    13.6860 ca         1 YWS      -0.119500
     15 C11         20.5310    -4.4770    14.8760 c3         1 YWS       0.203800
     16 C12         19.2830    -2.3150    14.8130 c3         1 YWS       0.212800
     17 C23         23.4450     1.9000    20.1370 c5         1 YWS      -0.146700
     18 C25         21.8990     1.9170    20.4310 c5         1 YWS      -0.096400
     19 C29         18.3990     0.8390    18.1160 ca         1 YWS      -0.114300
     20 C30         18.5210     0.0370    19.2670 ca         1 YWS      -0.070000
     21 C31         18.4530     0.6150    20.5470 ca         1 YWS      -0.163500
     22 C32         18.2540     2.0050    20.6840 ca         1 YWS       0.129100
     23 C33         18.1140     2.8010    19.5370 ca         1 YWS      -0.163500
     24 C34         18.1890     2.2250    18.2570 ca         1 YWS      -0.070000
     25 C36         22.9270    -6.3770    14.0120 c3         1 YWS      -0.091100
     26 C37         21.9260    -3.9790    14.4050 c3         1 YWS      -0.059700
     27 C38         22.6080    -4.9800    13.4310 c3         1 YWS      -0.075400
     28 C39         22.8420    -3.6080    15.6000 c3         1 YWS      -0.089100
     29 C40         14.7690    -6.4510    12.0880 c3         1 YWS       0.212600
     30 C41         18.4250     1.9130    23.1540 c3         1 YWS      -0.187400
     31 C45         16.3190     4.0630    25.9510 c3         1 YWS       0.218600
     32 C46         18.6700     0.6640    25.9900 c3         1 YWS       0.218600
     33 C47         14.8450     3.7470    26.2390 c3         1 YWS      -0.098600
     34 C48         17.1780     0.3110    26.1560 c3         1 YWS      -0.098600
     35 C50         14.0190    -7.7250    12.5220 c3         1 YWS      -0.086100
     36 N10         19.7010    -3.4950    15.6280 n3         1 YWS      -0.732500
     37 N16         20.9580     0.6110    16.7570 ns         1 YWS      -0.504900
     38 O08         19.0290    -5.3240    17.2690 o          1 YWS      -0.533500
     39 O09         17.7520    -3.1250    17.2200 o          1 YWS      -0.533500
     40 O14         19.8450    -0.0540    14.0210 oh         1 YWS      -0.668000
     41 O18         22.3720    -0.6820    18.0200 o          1 YWS      -0.541000
     42 O19         22.6830     1.5930    17.7350 os         1 YWS      -0.452100
     43 O22         24.1730     3.8630    18.9600 os         1 YWS      -0.463000
     44 O27         22.6540     4.0920    20.7020 os         1 YWS      -0.424000
     45 O35         18.2030     2.6300    21.9140 os         1 YWS      -0.320100
     46 O43         16.7610     3.1420    24.9530 os         1 YWS      -0.610400
     47 O44         18.8400     2.0910    25.8920 os         1 YWS      -0.610400
     48 O49         19.0610     4.3170    24.5030 o          1 YWS      -0.530000
     49 O51         15.5370    -6.7370    10.9160 oh         1 YWS      -0.652000
     50 P42         18.3450     3.0170    24.6500 p5         1 YWS       1.352800
     51 S07         18.4300    -4.2170    16.5150 sy         1 YWS       1.160600
     52 H131        21.1810    -1.3090    14.9830 h1         1 YWS       0.054700
     53 H151        20.0510    -1.2150    17.1860 h1         1 YWS       0.101700
     54 H201        24.3730     0.6060    18.5360 h1         1 YWS       0.082700
     55 H212        24.7710     2.9450    17.1810 h1         1 YWS       0.057200
     56 H211        25.7740     2.5870    18.6150 h1         1 YWS       0.057200
     57 H241        24.6830     3.5660    20.9780 h2         1 YWS       0.080700
     58 H261        20.6040     3.7110    20.5990 h1         1 YWS       0.058200
     59 H262        21.4880     3.5940    19.0470 h1         1 YWS       0.058200
     60 H282        18.2980     0.9630    15.9580 hc         1 YWS       0.062200
     61 H281        17.7500    -0.5600    16.6150 hc         1 YWS       0.062200
     62 H021        14.6280    -4.0130    13.3500 ha         1 YWS       0.125000
     63 H031        16.0800    -3.1110    15.1290 ha         1 YWS       0.135500
     64 H051        18.4090    -6.7720    15.0690 ha         1 YWS       0.135500
     65 H061        16.9500    -7.6620    13.2870 ha         1 YWS       0.125000
     66 H111        19.9740    -4.8230    13.9950 h1         1 YWS       0.049700
     67 H112        20.7150    -5.3640    15.4950 h1         1 YWS       0.049700
     68 H121        18.2320    -2.0550    14.9880 h1         1 YWS       0.062200
     69 H122        19.3400    -2.5660    13.7450 h1         1 YWS       0.062200
     70 H231        23.9930     1.2670    20.8440 hc         1 YWS       0.075700
     71 H251        21.7070     1.7030    21.4890 hc         1 YWS       0.062200
     72 H252        21.3010     1.1980    19.8670 hc         1 YWS       0.062200
     73 H301        18.6770    -1.0350    19.1710 ha         1 YWS       0.123000
     74 H311        18.5600    -0.0270    21.4160 ha         1 YWS       0.124000
     75 H331        17.9600     3.8710    19.6400 ha         1 YWS       0.124000
     76 H341        18.0930     2.8590    17.3790 ha         1 YWS       0.123000
     77 H362        23.4060    -7.0010    13.2480 hc         1 YWS       0.034033
     78 H363        23.6120    -6.3060    14.8640 hc         1 YWS       0.034033
     79 H361        22.0150    -6.8900    14.3380 hc         1 YWS       0.034033
     80 H371        21.7740    -3.0680    13.8160 hc         1 YWS       0.046700
     81 H381        23.5420    -4.5350    13.0630 hc         1 YWS       0.038700
     82 H382        21.9670    -5.1090    12.5500 hc         1 YWS       0.038700
     83 H393        22.3850    -2.8250    16.2150 hc         1 YWS       0.044367
     84 H391        23.0190    -4.4750    16.2470 hc         1 YWS       0.044367
     85 H392        23.8110    -3.2370    15.2460 hc         1 YWS       0.044367
     86 H401        14.0150    -5.6890    11.8510 h1         1 YWS       0.036700
     87 H411        17.6690     1.1320    23.2910 h1         1 YWS       0.066200
     88 H412        19.4220     1.4570    23.1650 h1         1 YWS       0.066200
     89 H451        16.9010     3.9570    26.8770 h1         1 YWS       0.036450
     90 H452        16.4110     5.0990    25.5960 h1         1 YWS       0.036450
     91 H461        19.0790     0.1480    25.1120 h1         1 YWS       0.036450
     92 H462        19.2140     0.2930    26.8670 h1         1 YWS       0.036450
     93 H472        14.4520     4.4300    27.0010 hc         1 YWS       0.047867
     94 H473        14.2420     3.8600    25.3300 hc         1 YWS       0.047867
     95 H471        14.7350     2.7200    26.6070 hc         1 YWS       0.047867
     96 H481        17.0720    -0.7540    26.3950 hc         1 YWS       0.047867
     97 H482        16.7340     0.8870    26.9770 hc         1 YWS       0.047867
     98 H483        16.6080     0.5020    25.2400 hc         1 YWS       0.047867
     99 H503        13.4290    -7.5300    13.4250 hc         1 YWS       0.049033
    100 H501        13.3350    -8.0560    11.7320 hc         1 YWS       0.049033
    101 H502        14.7170    -8.5430    12.7380 hc         1 YWS       0.049033
    102 H161        20.7990     1.5720    16.4880 hn         1 YWS       0.323500
    103 H141        20.5130     0.6600    14.1120 ho         1 YWS       0.452000
    104 H511        16.0790    -5.9370    10.7410 ho         1 YWS       0.445000
@<TRIPOS>BOND
     1     1     2 1   
     2     1    16 1   
     3     1    40 1   
     4     1    52 1   
     5     2     8 1   
     6     2    37 1   
     7     2    53 1   
     8     3    37 1   
     9     3    41 2   
    10     3    42 1   
    11     4     5 1   
    12     4    17 1   
    13     4    42 1   
    14     4    54 1   
    15     5    43 1   
    16     5    55 1   
    17     5    56 1   
    18     6    17 1   
    19     6    43 1   
    20     6    44 1   
    21     6    57 1   
    22     7    18 1   
    23     7    44 1   
    24     7    58 1   
    25     7    59 1   
    26     8    19 1   
    27     8    60 1   
    28     8    61 1   
    29     9    10 ar  
    30     9    14 ar  
    31     9    29 1   
    32    10    11 ar  
    33    10    62 1   
    34    11    12 ar  
    35    11    63 1   
    36    12    13 ar  
    37    12    51 1   
    38    13    14 ar  
    39    13    64 1   
    40    14    65 1   
    41    15    26 1   
    42    15    36 1   
    43    15    66 1   
    44    15    67 1   
    45    16    36 1   
    46    16    68 1   
    47    16    69 1   
    48    17    18 1   
    49    17    70 1   
    50    18    71 1   
    51    18    72 1   
    52    19    20 ar  
    53    19    24 ar  
    54    20    21 ar  
    55    20    73 1   
    56    21    22 ar  
    57    21    74 1   
    58    22    23 ar  
    59    22    45 1   
    60    23    24 ar  
    61    23    75 1   
    62    24    76 1   
    63    25    27 1   
    64    25    77 1   
    65    25    78 1   
    66    25    79 1   
    67    26    27 1   
    68    26    28 1   
    69    26    80 1   
    70    27    81 1   
    71    27    82 1   
    72    28    83 1   
    73    28    84 1   
    74    28    85 1   
    75    29    35 1   
    76    29    49 1   
    77    29    86 1   
    78    30    45 1   
    79    30    50 1   
    80    30    87 1   
    81    30    88 1   
    82    31    33 1   
    83    31    46 1   
    84    31    89 1   
    85    31    90 1   
    86    32    34 1   
    87    32    47 1   
    88    32    91 1   
    89    32    92 1   
    90    33    93 1   
    91    33    94 1   
    92    33    95 1   
    93    34    96 1   
    94    34    97 1   
    95    34    98 1   
    96    35    99 1   
    97    35   100 1   
    98    35   101 1   
    99    36    51 1   
   100    37   102 1   
   101    38    51 2   
   102    39    51 2   
   103    40   103 1   
   104    46    50 1   
   105    47    50 1   
   106    48    50 2   
   107    49   104 1   
@<TRIPOS>SUBSTRUCTURE
     1 YWS         1 TEMP              0 ****  ****    0 ROOT
