@<TRIPOS>MOLECULE
YWS
  104   107     1     0     0
SMALL
abcg2


@<TRIPOS>ATOM
      1 C13         20.0340    -0.7310    14.9390 c3         1 YWS       0.154300
      2 C15         19.7140    -0.3030    16.3800 c3         1 YWS       0.094700
      3 C17         21.5890     0.2570    17.8570 c          1 YWS       0.640100
      4 C20         23.3220     1.1220    19.2310 c5         1 YWS       0.159300
      5 C21         24.4590     2.0960    18.9820 c5         1 YWS       0.153600
      6 C24         23.3590     3.0270    20.7460 c5         1 YWS       0.371300
      7 C26         21.1020     3.2350    20.4510 c5         1 YWS       0.155600
      8 C28         18.3310     0.3430    16.5390 c3         1 YWS      -0.035100
      9 C01         16.1230    -6.3300    13.1720 ca         1 YWS      -0.075300
     10 C02         15.7580    -5.0420    13.5510 ca         1 YWS      -0.119500
     11 C03         16.4940    -4.3380    14.4890 ca         1 YWS      -0.019500
     12 C04         17.6130    -4.9350    15.0580 ca         1 YWS      -0.301500
     13 C05         17.9810    -6.2290    14.7110 ca         1 YWS      -0.019500
     14 C06         17.2350    -6.9180    13.7690 ca         1 YWS      -0.119500
     15 C11         20.5840    -4.0540    14.3330 c3         1 YWS       0.203800
     16 C12         19.2590    -1.9630    14.4690 c3         1 YWS       0.212800
     17 C23         22.8140     1.5820    20.6060 c5         1 YWS      -0.146700
     18 C25         21.3090     1.7670    20.7950 c5         1 YWS      -0.096400
     19 C29         18.0960     0.8230    17.9440 ca         1 YWS      -0.114300
     20 C30         17.9650    -0.0640    19.0070 ca         1 YWS      -0.070000
     21 C31         17.8140     0.3800    20.3160 ca         1 YWS      -0.163500
     22 C32         17.7980     1.7450    20.5800 ca         1 YWS       0.129100
     23 C33         17.8930     2.6480    19.5270 ca         1 YWS      -0.163500
     24 C34         18.0460     2.1860    18.2320 ca         1 YWS      -0.070000
     25 C36         23.0090    -5.8230    13.5940 c3         1 YWS      -0.091100
     26 C37         22.0010    -3.5080    14.1800 c3         1 YWS      -0.059700
     27 C38         22.7860    -4.3710    13.1850 c3         1 YWS      -0.075400
     28 C39         22.7010    -3.3820    15.5270 c3         1 YWS      -0.089100
     29 C40         15.3030    -7.0820    12.1460 c3         1 YWS       0.212600
     30 C41         17.9590     1.4710    22.9410 c3         1 YWS      -0.187400
     31 C45         17.2660     4.5880    25.4330 c3         1 YWS       0.218600
     32 C46         17.6980     1.0380    26.2700 c3         1 YWS       0.218600
     33 C47         15.8550     4.9640    25.8110 c3         1 YWS      -0.098600
     34 C48         18.2730    -0.1020    27.0730 c3         1 YWS      -0.098600
     35 C50         14.2530    -7.9430    12.8300 c3         1 YWS      -0.086100
     36 N10         19.7070    -3.1880    15.1310 n3         1 YWS      -0.732500
     37 N16         20.7380     0.5970    16.8730 ns         1 YWS      -0.504900
     38 O08         19.4320    -4.8850    16.9510 o          1 YWS      -0.533500
     39 O09         17.8230    -2.9700    16.7760 o          1 YWS      -0.533500
     40 O14         19.7530     0.2780    13.9950 oh         1 YWS      -0.668000
     41 O18         21.6710    -0.8400    18.3720 o          1 YWS      -0.541000
     42 O19         22.3600     1.3020    18.1950 os         1 YWS      -0.452100
     43 O22         24.0320     3.3180    19.5420 os         1 YWS      -0.463000
     44 O27         22.2810     3.8770    20.9220 os         1 YWS      -0.424000
     45 O35         17.6990     2.2830    21.8210 os         1 YWS      -0.320100
     46 O43         17.2120     3.4540    24.5450 os         1 YWS      -0.610400
     47 O44         18.7670     1.6700    25.5410 os         1 YWS      -0.610400
     48 O49         19.7550     3.3590    23.9270 o          1 YWS      -0.530000
     49 O51         16.0990    -7.9290    11.3490 oh         1 YWS      -0.652000
     50 P42         18.5300     2.5950    24.2560 p5         1 YWS       1.352800
     51 S07         18.6490    -3.9780    16.1290 sy         1 YWS       1.160600
     52 H131        21.1020    -0.9830    14.9240 h1         1 YWS       0.054700
     53 H151        19.7580    -1.1930    17.0060 h1         1 YWS       0.101700
     54 H201        23.6690     0.0900    19.2440 h1         1 YWS       0.082700
     55 H212        24.6850     2.2400    17.9240 h1         1 YWS       0.057200
     56 H211        25.3650     1.7220    19.4760 h1         1 YWS       0.057200
     57 H241        24.0400     3.1630    21.5950 h2         1 YWS       0.080700
     58 H261        20.2490     3.6790    20.9620 h1         1 YWS       0.058200
     59 H262        20.9710     3.3840    19.3740 h1         1 YWS       0.058200
     60 H282        18.2400     1.1840    15.8490 hc         1 YWS       0.062200
     61 H281        17.5690    -0.3830    16.2510 hc         1 YWS       0.062200
     62 H021        14.8900    -4.5740    13.1000 ha         1 YWS       0.125000
     63 H031        16.1930    -3.3360    14.7640 ha         1 YWS       0.135500
     64 H051        18.8410    -6.7050    15.1640 ha         1 YWS       0.135500
     65 H061        17.5310    -7.9220    13.4950 ha         1 YWS       0.125000
     66 H111        20.1350    -4.2120    13.3450 h1         1 YWS       0.049700
     67 H112        20.6480    -5.0290    14.8140 h1         1 YWS       0.049700
     68 H121        18.1850    -1.8090    14.5930 h1         1 YWS       0.062200
     69 H122        19.4240    -2.0820    13.3950 h1         1 YWS       0.062200
     70 H231        23.2360     0.9270    21.3680 hc         1 YWS       0.075700
     71 H251        21.0520     1.5960    21.8410 hc         1 YWS       0.062200
     72 H252        20.6870     1.0990    20.2020 hc         1 YWS       0.062200
     73 H301        17.9820    -1.1320    18.8200 ha         1 YWS       0.123000
     74 H311        17.7160    -0.3510    21.1090 ha         1 YWS       0.124000
     75 H331        17.8730     3.7120    19.7300 ha         1 YWS       0.124000
     76 H341        18.1380     2.9050    17.4270 ha         1 YWS       0.123000
     77 H362        23.6010    -6.3410    12.8400 hc         1 YWS       0.034033
     78 H363        23.5470    -5.9030    14.5400 hc         1 YWS       0.034033
     79 H361        22.0730    -6.3740    13.6990 hc         1 YWS       0.034033
     80 H371        21.9410    -2.5130    13.7260 hc         1 YWS       0.046700
     81 H381        23.7550    -3.8950    13.0170 hc         1 YWS       0.038700
     82 H382        22.2700    -4.3480    12.2200 hc         1 YWS       0.038700
     83 H393        22.1940    -2.6750    16.1820 hc         1 YWS       0.044367
     84 H391        22.7390    -4.3390    16.0510 hc         1 YWS       0.044367
     85 H392        23.7270    -3.0330    15.3980 hc         1 YWS       0.044367
     86 H401        14.7840    -6.3400    11.5230 h1         1 YWS       0.036700
     87 H411        17.0780     0.8950    23.2440 h1         1 YWS       0.066200
     88 H412        18.7730     0.7590    22.7610 h1         1 YWS       0.066200
     89 H451        17.8440     4.3420    26.3270 h1         1 YWS       0.036450
     90 H452        17.7680     5.4130    24.9250 h1         1 YWS       0.036450
     91 H461        17.2320     1.7770    26.9250 h1         1 YWS       0.036450
     92 H462        16.9290     0.6670    25.5880 h1         1 YWS       0.036450
     93 H472        15.8790     5.8310    26.4710 hc         1 YWS       0.047867
     94 H473        15.2630     5.2280    24.9340 hc         1 YWS       0.047867
     95 H471        15.3560     4.1520    26.3400 hc         1 YWS       0.047867
     96 H481        17.4760    -0.5720    27.6490 hc         1 YWS       0.047867
     97 H482        18.7140    -0.8620    26.4270 hc         1 YWS       0.047867
     98 H483        19.0320     0.2450    27.7730 hc         1 YWS       0.047867
     99 H503        13.5900    -7.3240    13.4340 hc         1 YWS       0.049033
    100 H501        13.6440    -8.4670    12.0930 hc         1 YWS       0.049033
    101 H502        14.7180    -8.6800    13.4860 hc         1 YWS       0.049033
    102 H161        20.7170     1.5620    16.5770 hn         1 YWS       0.323500
    103 H141        20.3600     1.0120    14.1300 ho         1 YWS       0.452000
    104 H511        16.7170    -7.3860    10.8490 ho         1 YWS       0.445000
@<TRIPOS>BOND
     1     1     2 1   
     2     1    16 1   
     3     1    40 1   
     4     1    52 1   
     5     2     8 1   
     6     2    37 1   
     7     2    53 1   
     8     3    37 1   
     9     3    41 2   
    10     3    42 1   
    11     4     5 1   
    12     4    17 1   
    13     4    42 1   
    14     4    54 1   
    15     5    43 1   
    16     5    55 1   
    17     5    56 1   
    18     6    17 1   
    19     6    43 1   
    20     6    44 1   
    21     6    57 1   
    22     7    18 1   
    23     7    44 1   
    24     7    58 1   
    25     7    59 1   
    26     8    19 1   
    27     8    60 1   
    28     8    61 1   
    29     9    10 ar  
    30     9    14 ar  
    31     9    29 1   
    32    10    11 ar  
    33    10    62 1   
    34    11    12 ar  
    35    11    63 1   
    36    12    13 ar  
    37    12    51 1   
    38    13    14 ar  
    39    13    64 1   
    40    14    65 1   
    41    15    26 1   
    42    15    36 1   
    43    15    66 1   
    44    15    67 1   
    45    16    36 1   
    46    16    68 1   
    47    16    69 1   
    48    17    18 1   
    49    17    70 1   
    50    18    71 1   
    51    18    72 1   
    52    19    20 ar  
    53    19    24 ar  
    54    20    21 ar  
    55    20    73 1   
    56    21    22 ar  
    57    21    74 1   
    58    22    23 ar  
    59    22    45 1   
    60    23    24 ar  
    61    23    75 1   
    62    24    76 1   
    63    25    27 1   
    64    25    77 1   
    65    25    78 1   
    66    25    79 1   
    67    26    27 1   
    68    26    28 1   
    69    26    80 1   
    70    27    81 1   
    71    27    82 1   
    72    28    83 1   
    73    28    84 1   
    74    28    85 1   
    75    29    35 1   
    76    29    49 1   
    77    29    86 1   
    78    30    45 1   
    79    30    50 1   
    80    30    87 1   
    81    30    88 1   
    82    31    33 1   
    83    31    46 1   
    84    31    89 1   
    85    31    90 1   
    86    32    34 1   
    87    32    47 1   
    88    32    91 1   
    89    32    92 1   
    90    33    93 1   
    91    33    94 1   
    92    33    95 1   
    93    34    96 1   
    94    34    97 1   
    95    34    98 1   
    96    35    99 1   
    97    35   100 1   
    98    35   101 1   
    99    36    51 1   
   100    37   102 1   
   101    38    51 2   
   102    39    51 2   
   103    40   103 1   
   104    46    50 1   
   105    47    50 1   
   106    48    50 2   
   107    49   104 1   
@<TRIPOS>SUBSTRUCTURE
     1 YWS         1 TEMP              0 ****  ****    0 ROOT
