@<TRIPOS>MOLECULE
YWX
   42    45     1     0     0
SMALL
No Charge or Current Charge


@<TRIPOS>ATOM
      1 C1         172.3630   152.0880   142.2160 c3         1 YWX       0.006600
      2 C2         173.7790   150.4320   139.4610 cc         1 YWX       0.480700
      3 C3         174.3720   152.1120   140.6040 cd         1 YWX       0.427400
      4 C11        167.1800   155.8490   150.3260 ca         1 YWX      -0.064000
      5 C12        166.1130   154.9380   150.3860 ca         1 YWX      -0.114000
      6 C13        165.8130   154.1340   149.2800 ca         1 YWX      -0.081000
      7 C14        166.5740   154.2520   148.1090 ca         1 YWX      -0.106000
      8 C16        169.1320   154.1390   146.2520 ca         1 YWX      -0.010000
      9 C17        169.7930   154.2950   145.0290 ca         1 YWX      -0.120000
     10 C18        170.6210   153.3700   144.2830 cc         1 YWX      -0.176400
     11 N          173.1680   151.6010   141.0760 na         1 YWX      -0.067700
     12 C          171.8550   153.5360   142.0790 c          1 YWX       0.596100
     13 O          172.1520   154.2330   141.1140 o          1 YWX      -0.474100
     14 C10        167.9680   155.9740   149.1550 ca         1 YWX      -0.183300
     15 C4         173.8670   149.3960   138.3920 ce         1 YWX       0.388200
     16 C5         170.4820   155.3480   143.1220 cc         1 YWX      -0.116400
     17 C6         169.7090   155.4820   144.3330 ca         1 YWX       0.191000
     18 C7         168.3640   156.4310   145.9230 ca         1 YWX       0.367900
     19 C8         168.3930   155.2520   146.7300 cp         1 YWX      -0.122000
     20 C9         167.6460   155.1720   148.0170 cp         1 YWX       0.015000
     21 F          168.8420   158.1040   148.4970 f          1 YWX      -0.113000
     22 F1         170.2550   156.4510   148.5670 f          1 YWX      -0.113000
     23 F2         169.5280   157.3310   150.4010 f          1 YWX      -0.113000
     24 N1         172.7860   150.5120   140.3400 nd         1 YWX      -0.472800
     25 N2         174.7670   151.3770   139.5800 nc         1 YWX      -0.678000
     26 N3         172.9840   148.4550   138.1950 n2         1 YWX      -0.714100
     27 N4         171.0260   154.0500   143.1150 n          1 YWX      -0.139200
     28 N5         169.0130   156.5590   144.7340 nb         1 YWX      -0.617000
     29 H1         171.4870   151.4410   142.3400 h1         1 YWX       0.099200
     30 H2         172.9650   152.0290   143.1300 h1         1 YWX       0.099200
     31 H3         174.8660   152.9720   141.0400 h5         1 YWX       0.068100
     32 H4         167.3880   156.4570   151.2050 ha         1 YWX       0.133000
     33 H5         165.5220   154.8550   151.2950 ha         1 YWX       0.123000
     34 H6         164.9890   153.4250   149.3270 ha         1 YWX       0.121000
     35 H7         166.3270   153.6320   147.2510 ha         1 YWX       0.126000
     36 H8         169.1880   153.2090   146.8130 ha         1 YWX       0.124000
     37 H9         170.9500   152.3500   144.4530 h4         1 YWX       0.221000
     38 H10        174.7480   149.4670   137.7510 h4         1 YWX      -0.011200
     39 H11        170.6980   156.0070   142.2890 h4         1 YWX       0.254000
     40 H12        167.7860   157.2960   146.2440 h4         1 YWX       0.025100
     41 H13        173.2800   147.8740   137.3960 hn         1 YWX       0.383400
     42 C15        169.1500   156.9650   149.1550 c3         1 YWX       0.357300
@<TRIPOS>BOND
     1     1    11 1   
     2     1    12 1   
     3     1    29 1   
     4     1    30 1   
     5     2    15 1   
     6     2    24 2   
     7     2    25 1   
     8     3    11 1   
     9     3    25 2   
    10     3    31 1   
    11     4     5 ar  
    12     4    14 ar  
    13     4    32 1   
    14     5     6 ar  
    15     5    33 1   
    16     6     7 ar  
    17     6    34 1   
    18     7    20 ar  
    19     7    35 1   
    20     8     9 ar  
    21     8    19 ar  
    22     8    36 1   
    23     9    10 2   
    24     9    17 ar  
    25    10    27 1   
    26    10    37 1   
    27    11    24 1   
    28    12    13 2   
    29    12    27 1   
    30    14    20 ar  
    31    14    42 1   
    32    15    26 2   
    33    15    38 1   
    34    16    17 2   
    35    16    27 1   
    36    16    39 1   
    37    17    28 ar  
    38    18    19 ar  
    39    18    28 ar  
    40    18    40 1   
    41    19    20 1   
    42    21    42 1   
    43    22    42 1   
    44    23    42 1   
    45    26    41 1   
@<TRIPOS>SUBSTRUCTURE
     1 YWX         1 TEMP              0 ****  ****    0 ROOT
