@<TRIPOS>MOLECULE
YWX
   42    45     1     0     0
SMALL
abcg2


@<TRIPOS>ATOM
      1 C1         172.5610   152.0070   142.5790 c3         1 YWX       0.006600
      2 C2         173.7580   150.7490   139.6060 cc         1 YWX       0.480700
      3 C3         174.6400   151.7330   141.2190 cd         1 YWX       0.427400
      4 C11        167.4090   155.9860   150.1670 ca         1 YWX      -0.064000
      5 C12        166.2570   155.2320   150.3390 ca         1 YWX      -0.114000
      6 C13        165.7920   154.4380   149.3040 ca         1 YWX      -0.081000
      7 C14        166.4800   154.4010   148.0990 ca         1 YWX      -0.106000
      8 C16        169.2150   154.0700   146.3290 ca         1 YWX      -0.010000
      9 C17        169.8140   154.0650   145.0460 ca         1 YWX      -0.120000
     10 C18        170.7390   153.2630   144.4300 cc         1 YWX      -0.176400
     11 N          173.3360   151.5480   141.4660 na         1 YWX      -0.067700
     12 C          171.8390   153.2920   142.2140 c          1 YWX       0.596100
     13 O          172.0090   153.8620   141.1740 o          1 YWX      -0.474100
     14 C10        168.0980   155.9500   148.9620 ca         1 YWX      -0.183300
     15 C4         173.6340   150.0900   138.3040 ce         1 YWX       0.388200
     16 C5         170.1780   154.9070   142.9680 cc         1 YWX      -0.116400
     17 C6         169.4550   155.1040   144.1170 ca         1 YWX       0.191000
     18 C7         168.0270   156.0420   145.5840 ca         1 YWX       0.367900
     19 C8         168.3310   155.0670   146.6010 cp         1 YWX      -0.122000
     20 C9         167.6360   155.1500   147.9090 cp         1 YWX       0.015000
     21 F          169.2430   157.6470   147.7910 f          1 YWX      -0.113000
     22 F1         170.4160   156.0010   148.5240 f          1 YWX      -0.113000
     23 F2         169.6460   157.4680   149.8910 f          1 YWX      -0.113000
     24 N1         172.7580   150.9290   140.4410 nd         1 YWX      -0.472800
     25 N2         174.9430   151.2310   140.0500 nc         1 YWX      -0.678000
     26 N3         172.5260   149.6460   137.8880 n2         1 YWX      -0.714100
     27 N4         170.9490   153.7870   143.1750 n          1 YWX      -0.139200
     28 N5         168.5470   156.0780   144.3990 nb         1 YWX      -0.617000
     29 H1         171.8540   151.2270   142.8650 h1         1 YWX       0.099200
     30 H2         173.2260   152.1800   143.4280 h1         1 YWX       0.099200
     31 H3         175.3080   152.2200   141.9140 h5         1 YWX       0.068100
     32 H4         167.7580   156.5990   150.9870 ha         1 YWX       0.133000
     33 H5         165.7290   155.2680   151.2820 ha         1 YWX       0.123000
     34 H6         164.8950   153.8460   149.4300 ha         1 YWX       0.121000
     35 H7         166.1180   153.7820   147.2880 ha         1 YWX       0.126000
     36 H8         169.4570   153.3140   147.0660 ha         1 YWX       0.124000
     37 H9         171.2570   152.3910   144.7910 h4         1 YWX       0.221000
     38 H10        174.5720   150.0280   137.7510 h4         1 YWX      -0.011200
     39 H11        170.2010   155.4560   142.0430 h4         1 YWX       0.254000
     40 H12        167.2950   156.8090   145.8200 h4         1 YWX       0.025100
     41 H13        172.6380   149.2270   136.9690 hn         1 YWX       0.383400
     42 C15        169.3470   156.7630   148.7950 c3         1 YWX       0.357300
@<TRIPOS>BOND
     1     1    11 1   
     2     1    12 1   
     3     1    29 1   
     4     1    30 1   
     5     2    15 1   
     6     2    24 2   
     7     2    25 1   
     8     3    11 1   
     9     3    25 2   
    10     3    31 1   
    11     4     5 ar  
    12     4    14 ar  
    13     4    32 1   
    14     5     6 ar  
    15     5    33 1   
    16     6     7 ar  
    17     6    34 1   
    18     7    20 ar  
    19     7    35 1   
    20     8     9 ar  
    21     8    19 ar  
    22     8    36 1   
    23     9    10 2   
    24     9    17 ar  
    25    10    27 1   
    26    10    37 1   
    27    11    24 1   
    28    12    13 2   
    29    12    27 1   
    30    14    20 ar  
    31    14    42 1   
    32    15    26 2   
    33    15    38 1   
    34    16    17 2   
    35    16    27 1   
    36    16    39 1   
    37    17    28 ar  
    38    18    19 ar  
    39    18    28 ar  
    40    18    40 1   
    41    19    20 1   
    42    21    42 1   
    43    22    42 1   
    44    23    42 1   
    45    26    41 1   
@<TRIPOS>SUBSTRUCTURE
     1 YWX         1 TEMP              0 ****  ****    0 ROOT
