@<TRIPOS>MOLECULE
YWY
   70    75     1     0     0
SMALL
No Charge or Current Charge


@<TRIPOS>ATOM
      1 C13         -0.1670   -28.5470   125.1730 cc         1 YWY      -0.152000
      2 C16          2.6610   -19.1960   121.0950 c3         1 YWY      -0.101100
      3 C20          0.3610   -29.4120   126.0920 cd         1 YWY       0.243300
      4 C21         -2.0430   -28.8320   123.4610 c3         1 YWY       0.061900
      5 C22          1.5390   -29.2400   127.0130 c3         1 YWY      -0.111400
      6 C24         -0.0920   -25.9640   120.4660 ca         1 YWY      -0.105300
      7 C11          0.5210   -26.2190   125.8440 ca         1 YWY       0.152000
      8 C12          1.0330   -24.9440   125.5240 ca         1 YWY      -0.077000
      9 C27         -2.8730   -26.3780   120.1310 ca         1 YWY      -0.098000
     10 C33          4.8800   -27.5320   120.1730 c6         1 YWY       0.154100
     11 C1           2.7940   -21.3850   123.3120 ca         1 YWY       0.317900
     12 C2           3.0180   -21.5630   121.9120 ca         1 YWY      -0.130300
     13 C3           2.6580   -22.8080   121.3230 ca         1 YWY      -0.106000
     14 C4           2.1080   -23.7570   122.1910 ca         1 YWY      -0.042200
     15 C5           1.9330   -23.4930   123.5450 cp         1 YWY       0.338500
     16 N6           2.2610   -22.3310   124.1310 nb         1 YWY      -0.611000
     17 C7           1.2230   -25.6670   123.2140 ca         1 YWY      -0.005200
     18 C8           1.3840   -24.6810   124.1860 cp         1 YWY      -0.163500
     19 C9           0.7310   -26.9440   123.5090 ca         1 YWY      -0.104000
     20 C10          0.3730   -27.2260   124.8480 ca         1 YWY      -0.029000
     21 O15          4.8280   -19.9890   121.7480 oh         1 YWY      -0.653000
     22 N17         -1.1600   -29.2610   124.5540 na         1 YWY       0.137800
     23 N18         -1.2810   -30.5010   125.1100 nc         1 YWY      -0.199800
     24 N19         -0.3580   -30.5910   126.0370 nd         1 YWY      -0.364000
     25 F23          0.1410   -26.4630   127.1200 f          1 YWY      -0.169000
     26 C25         -0.9850   -24.8720   120.4230 ca         1 YWY      -0.096500
     27 C26         -2.3650   -25.0760   120.2570 ca         1 YWY      -0.112500
     28 C28         -1.9990   -27.4740   120.1740 ca         1 YWY      -0.112500
     29 C29         -0.6180   -27.2720   120.3450 ca         1 YWY      -0.096500
     30 C30          1.4070   -25.6670   120.6680 c3         1 YWY       0.149600
     31 C31          2.4240   -26.8040   120.2860 c6         1 YWY      -0.072700
     32 C32          3.8990   -26.4260   120.6300 c6         1 YWY      -0.112900
     33 O34          4.7150   -27.7840   118.7620 os         1 YWY      -0.446000
     34 C35          3.3960   -28.2500   118.4070 c6         1 YWY       0.154100
     35 C36          2.3450   -27.1750   118.7720 c6         1 YWY      -0.112900
     36 N37          1.6490   -25.0750   122.0070 na         1 YWY      -0.089600
     37 C38          4.0040   -20.7810   119.6500 c3         1 YWY      -0.101100
     38 H44          1.7050   -19.4700   120.6320 hc         1 YWY       0.045867
     39 H45          2.4550   -18.8400   122.1120 hc         1 YWY       0.045867
     40 H46          3.0860   -18.3590   120.5270 hc         1 YWY       0.045867
     41 H47         -3.0640   -29.1820   123.6520 h1         1 YWY       0.064367
     42 H48         -2.0460   -27.7380   123.3910 h1         1 YWY       0.064367
     43 H49         -1.6830   -29.2570   122.5170 h1         1 YWY       0.064367
     44 H52          2.0570   -30.1930   127.1720 hc         1 YWY       0.050700
     45 H51          2.2670   -28.5330   126.5990 hc         1 YWY       0.050700
     46 H50          1.2180   -28.8650   127.9910 hc         1 YWY       0.050700
     47 H42          1.1430   -24.1820   126.2910 ha         1 YWY       0.153000
     48 H55         -3.9420   -26.5370   120.0020 ha         1 YWY       0.118000
     49 H62          4.6980   -28.4610   120.7330 h1         1 YWY       0.047700
     50 H63          5.9160   -27.2160   120.3610 h1         1 YWY       0.047700
     51 H39          3.0560   -20.4450   123.7970 h4         1 YWY       0.034100
     52 H40          2.7970   -23.0260   120.2690 ha         1 YWY       0.121000
     53 H41          0.6340   -27.7010   122.7390 ha         1 YWY       0.127000
     54 H43          5.4450   -20.7500   121.7070 ho         1 YWY       0.446000
     55 H53         -0.6070   -23.8560   120.5220 ha         1 YWY       0.116000
     56 H54         -3.0410   -24.2240   120.2270 ha         1 YWY       0.118500
     57 H56         -2.3910   -28.4840   120.0770 ha         1 YWY       0.118500
     58 H57          0.0280   -28.1440   120.3850 ha         1 YWY       0.116000
     59 H58          1.6240   -24.8690   119.9480 h1         1 YWY       0.068700
     60 H59          2.1670   -27.6860   120.8860 hc         1 YWY       0.058700
     61 H60          4.0190   -26.2750   121.7120 hc         1 YWY       0.055700
     62 H61          4.1700   -25.4760   120.1480 hc         1 YWY       0.055700
     63 H65          3.3670   -28.4520   117.3270 h1         1 YWY       0.047700
     64 H64          3.1840   -29.1900   118.9380 h1         1 YWY       0.047700
     65 H67          2.5180   -26.2810   118.1570 hc         1 YWY       0.055700
     66 H66          1.3480   -27.5430   118.5020 hc         1 YWY       0.055700
     67 H68          4.6910   -21.6360   119.6290 hc         1 YWY       0.045867
     68 H69          3.1110   -21.0380   119.0670 hc         1 YWY       0.045867
     69 H70          4.4970   -19.9420   119.1460 hc         1 YWY       0.045867
     70 C14          3.6250   -20.4040   121.1030 c3         1 YWY       0.235300
@<TRIPOS>BOND
     1     1     3 2   
     2     1    20 1   
     3     1    22 1   
     4     2    38 1   
     5     2    39 1   
     6     2    40 1   
     7     2    70 1   
     8     3     5 1   
     9     3    24 1   
    10     4    22 1   
    11     4    41 1   
    12     4    42 1   
    13     4    43 1   
    14     5    44 1   
    15     5    45 1   
    16     5    46 1   
    17     6    26 ar  
    18     6    29 ar  
    19     6    30 1   
    20     7     8 ar  
    21     7    20 ar  
    22     7    25 1   
    23     8    18 ar  
    24     8    47 1   
    25     9    27 ar  
    26     9    28 ar  
    27     9    48 1   
    28    10    32 1   
    29    10    33 1   
    30    10    49 1   
    31    10    50 1   
    32    11    12 ar  
    33    11    16 ar  
    34    11    51 1   
    35    12    13 ar  
    36    12    70 1   
    37    13    14 ar  
    38    13    52 1   
    39    14    15 ar  
    40    14    36 1   
    41    15    16 ar  
    42    15    18 1   
    43    17    18 ar  
    44    17    19 ar  
    45    17    36 1   
    46    19    20 ar  
    47    19    53 1   
    48    21    54 1   
    49    21    70 1   
    50    22    23 1   
    51    23    24 2   
    52    26    27 ar  
    53    26    55 1   
    54    27    56 1   
    55    28    29 ar  
    56    28    57 1   
    57    29    58 1   
    58    30    31 1   
    59    30    36 1   
    60    30    59 1   
    61    31    32 1   
    62    31    35 1   
    63    31    60 1   
    64    32    61 1   
    65    32    62 1   
    66    33    34 1   
    67    34    35 1   
    68    34    63 1   
    69    34    64 1   
    70    35    65 1   
    71    35    66 1   
    72    37    67 1   
    73    37    68 1   
    74    37    69 1   
    75    37    70 1   
@<TRIPOS>SUBSTRUCTURE
     1 YWY         1 TEMP              0 ****  ****    0 ROOT
