@<TRIPOS>MOLECULE
YWY
   70    75     1     0     0
SMALL
bcc


@<TRIPOS>ATOM
      1 C13          0.0070   -28.5610   125.1160 cc         1 YWY      -0.166600
      2 C16          2.2380   -19.8090   120.3550 c3         1 YWY      -0.101100
      3 C20          0.4940   -29.5890   125.8940 cd         1 YWY       0.308600
      4 C21         -2.1210   -28.3970   123.7660 c3         1 YWY       0.032600
      5 C22          1.7540   -29.6670   126.6770 c3         1 YWY      -0.111400
      6 C24         -0.1270   -25.8500   120.4010 ca         1 YWY      -0.105300
      7 C11          0.8900   -26.3490   125.8040 ca         1 YWY       0.116900
      8 C12          1.4060   -25.1000   125.5640 ca         1 YWY      -0.095000
      9 C27         -2.8730   -26.1990   119.9780 ca         1 YWY      -0.116000
     10 C33          4.6800   -27.5410   120.4380 c6         1 YWY       0.130900
     11 C1           2.9520   -21.4670   123.3430 ca         1 YWY       0.383200
     12 C2           2.9560   -21.5820   121.9420 ca         1 YWY      -0.195600
     13 C3           2.4790   -22.7550   121.3710 ca         1 YWY      -0.124000
     14 C4           2.0390   -23.7520   122.2270 ca         1 YWY      -0.107500
     15 C5           2.0910   -23.5350   123.6170 cp         1 YWY       0.403800
     16 N6           2.5340   -22.4140   124.1680 nb         1 YWY      -0.611000
     17 C7           1.2490   -25.6040   123.1870 ca         1 YWY      -0.005200
     18 C8           1.5840   -24.7250   124.2370 cp         1 YWY      -0.163500
     19 C9           0.7370   -26.8670   123.4580 ca         1 YWY      -0.122000
     20 C10          0.5510   -27.2460   124.7840 ca         1 YWY      -0.029000
     21 O15          4.0220   -19.4070   121.8300 oh         1 YWY      -0.590800
     22 N17         -1.1670   -29.0380   124.6440 na         1 YWY       0.116400
     23 N18         -1.3880   -30.2590   125.0850 nc         1 YWY      -0.199800
     24 N19         -0.3960   -30.6000   125.8360 nd         1 YWY      -0.364000
     25 F23          0.6880   -26.7350   127.0750 f          1 YWY      -0.133900
     26 C25         -0.9820   -24.7520   120.3050 ca         1 YWY      -0.114500
     27 C26         -2.3410   -24.9200   120.0970 ca         1 YWY      -0.130500
     28 C28         -2.0330   -27.2980   120.0660 ca         1 YWY      -0.130500
     29 C29         -0.6690   -27.1240   120.2770 ca         1 YWY      -0.114500
     30 C30          1.3480   -25.5800   120.6520 c3         1 YWY       0.120300
     31 C31          2.3080   -26.7470   120.3850 c6         1 YWY      -0.072700
     32 C32          3.7330   -26.4180   120.8300 c6         1 YWY      -0.112900
     33 O34          4.6570   -27.8040   119.0540 os         1 YWY      -0.399600
     34 C35          3.3690   -28.1700   118.6130 c6         1 YWY       0.130900
     35 C36          2.3400   -27.0870   118.8920 c6         1 YWY      -0.112900
     36 N37          1.5270   -25.0020   121.9770 na         1 YWY      -0.060300
     37 C38          4.4530   -20.9430   120.0270 c3         1 YWY      -0.101100
     38 H44          1.7230   -20.5430   119.7360 hc         1 YWY       0.045867
     39 H45          1.5200   -19.4190   121.0790 hc         1 YWY       0.045867
     40 H46          2.5580   -18.9890   119.7100 hc         1 YWY       0.045867
     41 H47         -3.0790   -28.8950   123.8850 h1         1 YWY       0.064367
     42 H48         -2.2260   -27.3490   124.0350 h1         1 YWY       0.064367
     43 H49         -1.8060   -28.4680   122.7280 h1         1 YWY       0.064367
     44 H52          2.1410   -30.6850   126.6800 hc         1 YWY       0.050700
     45 H51          2.5200   -29.0160   126.2590 hc         1 YWY       0.050700
     46 H50          1.6020   -29.3710   127.7160 hc         1 YWY       0.050700
     47 H42          1.6570   -24.4340   126.3800 ha         1 YWY       0.171000
     48 H55         -3.9340   -26.3350   119.8130 ha         1 YWY       0.136000
     49 H62          4.4150   -28.4470   121.0030 h1         1 YWY       0.047700
     50 H63          5.7080   -27.2820   120.6970 h1         1 YWY       0.047700
     51 H39          3.3050   -20.5560   123.8090 h4         1 YWY       0.034100
     52 H40          2.4510   -22.8780   120.2950 ha         1 YWY       0.139000
     53 H41          0.4960   -27.5650   122.6700 ha         1 YWY       0.145000
     54 H43          4.8780   -19.7090   122.1540 ho         1 YWY       0.407000
     55 H53         -0.5770   -23.7490   120.3910 ha         1 YWY       0.134000
     56 H54         -2.9850   -24.0540   120.0230 ha         1 YWY       0.136500
     57 H56         -2.4340   -28.2990   119.9720 ha         1 YWY       0.136500
     58 H57         -0.0410   -28.0030   120.3430 ha         1 YWY       0.134000
     59 H58          1.6390   -24.7880   119.9560 h1         1 YWY       0.068700
     60 H59          1.9850   -27.6370   120.9380 hc         1 YWY       0.058700
     61 H60          3.7930   -26.2820   121.9120 hc         1 YWY       0.055700
     62 H61          4.0580   -25.4800   120.3670 hc         1 YWY       0.055700
     63 H65          3.4400   -28.3610   117.5410 h1         1 YWY       0.047700
     64 H64          3.0520   -29.1070   119.0950 h1         1 YWY       0.047700
     65 H67          2.5970   -26.1860   118.3250 hc         1 YWY       0.055700
     66 H66          1.3680   -27.4250   118.5310 hc         1 YWY       0.055700
     67 H68          5.3120   -21.4070   120.5160 hc         1 YWY       0.045867
     68 H69          4.0190   -21.6780   119.3520 hc         1 YWY       0.045867
     69 H70          4.8090   -20.1100   119.4200 hc         1 YWY       0.045867
     70 C14          3.4400   -20.4370   121.0570 c3         1 YWY       0.212100
@<TRIPOS>BOND
     1     1     3 2   
     2     1    20 1   
     3     1    22 1   
     4     2    38 1   
     5     2    39 1   
     6     2    40 1   
     7     2    70 1   
     8     3     5 1   
     9     3    24 1   
    10     4    22 1   
    11     4    41 1   
    12     4    42 1   
    13     4    43 1   
    14     5    44 1   
    15     5    45 1   
    16     5    46 1   
    17     6    26 ar  
    18     6    29 ar  
    19     6    30 1   
    20     7     8 ar  
    21     7    20 ar  
    22     7    25 1   
    23     8    18 ar  
    24     8    47 1   
    25     9    27 ar  
    26     9    28 ar  
    27     9    48 1   
    28    10    32 1   
    29    10    33 1   
    30    10    49 1   
    31    10    50 1   
    32    11    12 ar  
    33    11    16 ar  
    34    11    51 1   
    35    12    13 ar  
    36    12    70 1   
    37    13    14 ar  
    38    13    52 1   
    39    14    15 ar  
    40    14    36 1   
    41    15    16 ar  
    42    15    18 1   
    43    17    18 ar  
    44    17    19 ar  
    45    17    36 1   
    46    19    20 ar  
    47    19    53 1   
    48    21    54 1   
    49    21    70 1   
    50    22    23 1   
    51    23    24 2   
    52    26    27 ar  
    53    26    55 1   
    54    27    56 1   
    55    28    29 ar  
    56    28    57 1   
    57    29    58 1   
    58    30    31 1   
    59    30    36 1   
    60    30    59 1   
    61    31    32 1   
    62    31    35 1   
    63    31    60 1   
    64    32    61 1   
    65    32    62 1   
    66    33    34 1   
    67    34    35 1   
    68    34    63 1   
    69    34    64 1   
    70    35    65 1   
    71    35    66 1   
    72    37    67 1   
    73    37    68 1   
    74    37    69 1   
    75    37    70 1   
@<TRIPOS>SUBSTRUCTURE
     1 YWY         1 TEMP              0 ****  ****    0 ROOT
