@<TRIPOS>MOLECULE
YWZ
   60    61     1     0     0
SMALL
abcg2


@<TRIPOS>ATOM
      1 O1         -10.7440    -1.7090     0.6050 o          1 YWZ      -0.544000
      2 O2          -9.6020     0.2470    -0.4920 o          1 YWZ      -0.544000
      3 O3          -8.3970    -1.3480     1.0000 os         1 YWZ      -0.480800
      4 O4           0.5820     2.2520    -0.5690 os         1 YWZ      -0.333100
      5 O5           3.3820     2.1250    -0.4560 os         1 YWZ      -0.437000
      6 C6          -7.1340    -0.8110     0.7050 ca         1 YWZ       0.096100
      7 C7          -6.2070    -1.6150     0.0690 ca         1 YWZ      -0.098500
      8 C8          -4.9370    -1.1090    -0.1550 ca         1 YWZ      -0.094000
      9 C9          -4.5920     0.1860     0.2370 cp         1 YWZ       0.000000
     10 C10         -3.2360     0.7140     0.0000 cp         1 YWZ      -0.092000
     11 C11         -2.6320     1.5860     0.9120 ca         1 YWZ      -0.054500
     12 C12         -1.3620     2.0810     0.6990 ca         1 YWZ      -0.176000
     13 C13         -0.6450     1.7200    -0.4440 ca         1 YWZ       0.162100
     14 C14          1.3700     1.9120    -1.6970 c3         1 YWZ       0.163600
     15 C15          2.6940     2.6190    -1.5750 c3         1 YWZ       0.160600
     16 C16          4.6130     2.7680    -0.2400 c3         1 YWZ       0.161600
     17 C25         -1.2310     0.8540    -1.3650 ca         1 YWZ      -0.176000
     18 C26         -2.5090     0.3630    -1.1340 ca         1 YWZ      -0.054500
     19 C27         -5.5620     0.9650     0.8710 ca         1 YWZ      -0.094000
     20 C28         -6.8350     0.4750     1.1110 ca         1 YWZ      -0.098500
     21 S           -9.6040    -1.0890     0.0130 s6         1 YWZ       1.584600
     22 H3          -6.4550    -2.6260    -0.2230 ha         1 YWZ       0.137000
     23 H4          -4.2010    -1.7480    -0.6260 ha         1 YWZ       0.125500
     24 H5          -3.1530     1.8710     1.8170 ha         1 YWZ       0.114500
     25 H6          -0.9090     2.7470     1.4230 ha         1 YWZ       0.125000
     26 H7           1.5200     0.8280    -1.7540 h1         1 YWZ       0.045700
     27 H8           0.8840     2.2320    -2.6250 h1         1 YWZ       0.045700
     28 H9           2.5330     3.7030    -1.4980 h1         1 YWZ       0.033200
     29 H10          3.2570     2.4450    -2.5020 h1         1 YWZ       0.033200
     30 H11          5.2810     2.6440    -1.1050 h1         1 YWZ       0.030700
     31 H12          4.4740     3.8490    -0.0970 h1         1 YWZ       0.030700
     32 H14         -0.7160     0.5550    -2.2680 ha         1 YWZ       0.125000
     33 H15         -2.9470    -0.2920    -1.8760 ha         1 YWZ       0.114500
     34 H16         -5.3330     1.9790     1.1720 ha         1 YWZ       0.125500
     35 H17         -7.5740     1.0860     1.6130 ha         1 YWZ       0.137000
     36 F1          -9.1430    -2.0110    -1.1910 f          1 YWZ      -0.279900
     37 C1           5.2600     2.2100     1.0000 c3         1 YWZ       0.162600
     38 O6           5.5980     0.8630     0.7930 os         1 YWZ      -0.438000
     39 C3           6.1890     0.2690     1.9210 c3         1 YWZ       0.161600
     40 C4           6.5400    -1.1650     1.6170 c3         1 YWZ       0.161600
     41 O7           7.5430    -1.2110     0.6350 os         1 YWZ      -0.435000
     42 C17          7.9260    -2.5220     0.3110 c3         1 YWZ       0.162600
     43 C18          9.0020    -2.4940    -0.7420 c3         1 YWZ       0.159600
     44 O8          10.1620    -1.8940    -0.2100 os         1 YWZ      -0.435000
     45 C20         11.2070    -1.8490    -1.1470 c3         1 YWZ       0.245700
     46 C21         12.3580    -1.1820    -0.5500 c1         1 YWZ      -0.145100
     47 C22         13.3150    -0.6350    -0.0730 c1         1 YWZ      -0.221000
     48 H1           6.1510     2.8120     1.2250 h1         1 YWZ       0.030200
     49 H2           4.5780     2.3200     1.8560 h1         1 YWZ       0.030200
     50 H13          7.0900     0.8180     2.2300 h1         1 YWZ       0.030200
     51 H18          5.5020     0.2770     2.7790 h1         1 YWZ       0.030200
     52 H19          6.8760    -1.6380     2.5500 h1         1 YWZ       0.029200
     53 H20          5.6420    -1.7090     1.2910 h1         1 YWZ       0.029200
     54 H21          8.2850    -3.0620     1.1990 h1         1 YWZ       0.028700
     55 H22          7.0770    -3.0970    -0.0860 h1         1 YWZ       0.028700
     56 H23          9.2000    -3.5260    -1.0580 h1         1 YWZ       0.031200
     57 H24          8.6520    -1.9470    -1.6280 h1         1 YWZ       0.031200
     58 H25         11.5020    -2.8570    -1.4700 h1         1 YWZ       0.036200
     59 H26         10.9080    -1.3070    -2.0550 h1         1 YWZ       0.036200
     60 H27         14.1620    -0.1480     0.3520 ha         1 YWZ       0.255000
@<TRIPOS>BOND
     1     1    21 2   
     2     2    21 2   
     3     3     6 1   
     4     3    21 1   
     5     4    13 1   
     6     4    14 1   
     7     5    15 1   
     8     5    16 1   
     9     6     7 ar  
    10     6    20 ar  
    11     7     8 ar  
    12     7    22 1   
    13     8     9 ar  
    14     8    23 1   
    15     9    10 1   
    16     9    19 ar  
    17    10    11 ar  
    18    10    18 ar  
    19    11    12 ar  
    20    11    24 1   
    21    12    13 ar  
    22    12    25 1   
    23    13    17 ar  
    24    14    15 1   
    25    14    26 1   
    26    14    27 1   
    27    15    28 1   
    28    15    29 1   
    29    16    30 1   
    30    16    31 1   
    31    16    37 1   
    32    17    18 ar  
    33    17    32 1   
    34    18    33 1   
    35    19    20 ar  
    36    19    34 1   
    37    20    35 1   
    38    21    36 1   
    39    37    38 1   
    40    37    48 1   
    41    37    49 1   
    42    38    39 1   
    43    39    40 1   
    44    39    50 1   
    45    39    51 1   
    46    40    41 1   
    47    40    52 1   
    48    40    53 1   
    49    41    42 1   
    50    42    43 1   
    51    42    54 1   
    52    42    55 1   
    53    43    44 1   
    54    43    56 1   
    55    43    57 1   
    56    44    45 1   
    57    45    46 1   
    58    45    58 1   
    59    45    59 1   
    60    46    47 3   
    61    47    60 1   
@<TRIPOS>SUBSTRUCTURE
     1 YWZ         1 TEMP              0 ****  ****    0 ROOT
