@<TRIPOS>MOLECULE
YWZ
   60    61     1     0     0
SMALL
No Charge or Current Charge


@<TRIPOS>ATOM
      1 O1         -11.2200    -1.5290     0.4450 o          1 YWZ      -0.544000
      2 O2          -9.7910     0.0650    -0.9420 o          1 YWZ      -0.544000
      3 O3          -8.8320    -1.0310     1.1390 os         1 YWZ      -0.480800
      4 O4           0.3930     2.2210    -0.6090 os         1 YWZ      -0.333100
      5 O5           3.3240     2.0340    -0.4610 os         1 YWZ      -0.437000
      6 C6          -7.5620    -0.5880     0.8720 ca         1 YWZ       0.096100
      7 C7          -6.5830    -1.4840     0.4120 ca         1 YWZ      -0.098500
      8 C8          -5.2770    -1.0270     0.1590 ca         1 YWZ      -0.094000
      9 C9          -4.9200     0.3300     0.3700 cp         1 YWZ       0.000000
     10 C10         -3.5290     0.8140     0.1010 cp         1 YWZ      -0.092000
     11 C11         -2.9310     1.8110     0.9120 ca         1 YWZ      -0.054500
     12 C12         -1.6250     2.2640     0.6580 ca         1 YWZ      -0.176000
     13 C13         -0.8830     1.7360    -0.4090 ca         1 YWZ       0.162100
     14 C14          1.2380     1.7420    -1.6750 c3         1 YWZ       0.163600
     15 C15          2.5880     2.4910    -1.6130 c3         1 YWZ       0.160600
     16 C16          4.6080     2.6650    -0.2820 c3         1 YWZ       0.161600
     17 C25         -1.4590     0.7440    -1.2280 ca         1 YWZ      -0.176000
     18 C26         -2.7660     0.2910    -0.9730 ca         1 YWZ      -0.054500
     19 C27         -5.9230     1.2110     0.8500 ca         1 YWZ      -0.094000
     20 C28         -7.2300     0.7560     1.1030 ca         1 YWZ      -0.098500
     21 S           -9.9110    -1.1440    -0.1100 s6         1 YWZ       1.584600
     22 H3          -6.8290    -2.5320     0.2570 ha         1 YWZ       0.137000
     23 H4          -4.5300    -1.7370    -0.1870 ha         1 YWZ       0.125500
     24 H5          -3.4770     2.2290     1.7550 ha         1 YWZ       0.114500
     25 H6          -1.1830     3.0270     1.2940 ha         1 YWZ       0.125000
     26 H7           1.4150     0.6630    -1.5850 h1         1 YWZ       0.045700
     27 H8           0.7710     1.9380    -2.6490 h1         1 YWZ       0.045700
     28 H9           2.4060     3.5730    -1.5610 h1         1 YWZ       0.033200
     29 H10          3.1520     2.2830    -2.5310 h1         1 YWZ       0.033200
     30 H11          5.2520     2.5070    -1.1570 h1         1 YWZ       0.030700
     31 H12          4.4820     3.7470    -0.1410 h1         1 YWZ       0.030700
     32 H14         -0.9150     0.3160    -2.0650 ha         1 YWZ       0.125000
     33 H15         -3.1950    -0.4650    -1.6260 ha         1 YWZ       0.114500
     34 H16         -5.6910     2.2590     1.0170 ha         1 YWZ       0.125500
     35 H17         -7.9840     1.4460     1.4730 ha         1 YWZ       0.137000
     36 F1          -9.4130    -2.3990    -1.0460 f          1 YWZ      -0.279900
     37 C1           5.2900     2.0750     0.9760 c3         1 YWZ       0.162600
     38 O6           5.7140     0.7260     0.6910 os         1 YWZ      -0.438000
     39 C3           6.3580     0.0580     1.7940 c3         1 YWZ       0.161600
     40 C4           6.7700    -1.3660     1.3510 c3         1 YWZ       0.161600
     41 O7           7.8800    -1.2710     0.4370 os         1 YWZ      -0.435000
     42 C17          8.3540    -2.5390    -0.0600 c3         1 YWZ       0.162600
     43 C18          9.5460    -2.2920    -1.0160 c3         1 YWZ       0.159600
     44 O8          10.6910    -1.8800    -0.2440 os         1 YWZ      -0.435000
     45 C20         11.8660    -1.6070    -1.0240 c3         1 YWZ       0.245700
     46 C21         12.9480    -1.2040    -0.1160 c1         1 YWZ      -0.145100
     47 C22         13.8580    -0.8690     0.6100 c1         1 YWZ      -0.221000
     48 H1           6.1550     2.6980     1.2340 h1         1 YWZ       0.030200
     49 H2           4.5870     2.0980     1.8190 h1         1 YWZ       0.030200
     50 H13          7.2470     0.6110     2.1260 h1         1 YWZ       0.030200
     51 H18          5.6680    -0.0220     2.6450 h1         1 YWZ       0.030200
     52 H19          7.0580    -1.9430     2.2390 h1         1 YWZ       0.029200
     53 H20          5.9130    -1.8670     0.8820 h1         1 YWZ       0.029200
     54 H21          8.6730    -3.1910     0.7630 h1         1 YWZ       0.028700
     55 H22          7.5570    -3.0510    -0.6140 h1         1 YWZ       0.028700
     56 H23          9.7660    -3.2230    -1.5550 h1         1 YWZ       0.031200
     57 H24          9.2710    -1.5270    -1.7540 h1         1 YWZ       0.031200
     58 H25         12.1800    -2.4980    -1.5830 h1         1 YWZ       0.036200
     59 H26         11.6780    -0.7960    -1.7400 h1         1 YWZ       0.036200
     60 H27         14.6540    -0.5730     1.2640 ha         1 YWZ       0.255000
@<TRIPOS>BOND
     1     1    21 2   
     2     2    21 2   
     3     3     6 1   
     4     3    21 1   
     5     4    13 1   
     6     4    14 1   
     7     5    15 1   
     8     5    16 1   
     9     6     7 ar  
    10     6    20 ar  
    11     7     8 ar  
    12     7    22 1   
    13     8     9 ar  
    14     8    23 1   
    15     9    10 1   
    16     9    19 ar  
    17    10    11 ar  
    18    10    18 ar  
    19    11    12 ar  
    20    11    24 1   
    21    12    13 ar  
    22    12    25 1   
    23    13    17 ar  
    24    14    15 1   
    25    14    26 1   
    26    14    27 1   
    27    15    28 1   
    28    15    29 1   
    29    16    30 1   
    30    16    31 1   
    31    16    37 1   
    32    17    18 ar  
    33    17    32 1   
    34    18    33 1   
    35    19    20 ar  
    36    19    34 1   
    37    20    35 1   
    38    21    36 1   
    39    37    38 1   
    40    37    48 1   
    41    37    49 1   
    42    38    39 1   
    43    39    40 1   
    44    39    50 1   
    45    39    51 1   
    46    40    41 1   
    47    40    52 1   
    48    40    53 1   
    49    41    42 1   
    50    42    43 1   
    51    42    54 1   
    52    42    55 1   
    53    43    44 1   
    54    43    56 1   
    55    43    57 1   
    56    44    45 1   
    57    45    46 1   
    58    45    58 1   
    59    45    59 1   
    60    46    47 3   
    61    47    60 1   
@<TRIPOS>SUBSTRUCTURE
     1 YWZ         1 TEMP              0 ****  ****    0 ROOT
