@<TRIPOS>MOLECULE
YX0
   39    40     1     0     0
SMALL
No Charge or Current Charge


@<TRIPOS>ATOM
      1 C1          -1.7550    -0.2220    -1.3130 c6         1 YX0       0.358300
      2 C2          -2.5520    -1.4050    -0.6610 c6         1 YX0       0.117300
      3 C3          -2.8900    -1.0680     0.8250 c6         1 YX0       0.184300
      4 C4          -3.6340     0.3050     0.9220 c6         1 YX0       0.148300
      5 C5          -2.6960     1.3760     0.2710 c6         1 YX0       0.131300
      6 C6          -3.2840     2.8110     0.2860 c3         1 YX0      -0.092100
      7 O1          -0.4230    -0.1540    -0.7680 os         1 YX0      -0.460000
      8 O2          -1.8150    -2.6530    -0.7340 oh         1 YX0      -0.710000
      9 O3          -3.6430    -2.1450     1.4190 oh         1 YX0      -0.644000
     10 O4          -4.9250     0.2490     0.2610 oh         1 YX0      -0.699000
     11 O5          -2.4320     1.0420    -1.1120 os         1 YX0      -0.470000
     12 O6           5.1540    -1.7660    -0.1540 oh         1 YX0      -0.536100
     13 C12          6.1670    -0.0450     1.2160 c3         1 YX0      -0.047900
     14 C10          3.8560     0.1270     0.0820 cc         1 YX0      -0.110000
     15 C9           2.7470    -0.2830    -0.7020 cc         1 YX0      -0.280000
     16 C8           1.8110     0.7310    -0.7000 cd         1 YX0       0.060900
     17 C7           0.4690     0.7910    -1.3900 c3         1 YX0       0.215800
     18 O            2.2110     1.8230     0.0420 os         1 YX0      -0.124400
     19 N            3.4960     1.3790     0.5010 na         1 YX0      -0.443700
     20 H1          -1.6820    -0.4150    -2.3950 h2         1 YX0       0.064700
     21 H2          -3.4990    -1.5030    -1.2130 h1         1 YX0       0.074700
     22 H3          -1.9370    -0.9620     1.3660 h1         1 YX0       0.058700
     23 HA          -0.8630    -2.4120    -0.6240 ho         1 YX0       0.508000
     24 H4          -3.7630     0.5550     1.9860 h1         1 YX0       0.049700
     25 HB          -3.3160    -2.9550     0.9660 ho         1 YX0       0.456000
     26 H5          -1.7440     1.4020     0.8230 h1         1 YX0       0.060700
     27 HC          -5.3520     1.1260     0.3900 ho         1 YX0       0.503000
     28 H6C1        -3.5390     3.1210     1.3060 hc         1 YX0       0.047033
     29 H6C2        -2.5550     3.5310    -0.1030 hc         1 YX0       0.047033
     30 H6C3        -4.1880     2.8890    -0.3290 hc         1 YX0       0.047033
     31 H1'1         0.6040     0.5560    -2.4540 h1         1 YX0       0.051700
     32 H1'2         0.0720     1.8120    -1.3150 h1         1 YX0       0.051700
     33 H8           4.3410    -1.9440    -0.6680 ho         1 YX0       0.463000
     34 H6'1         6.9740    -0.7850     1.2790 hc         1 YX0       0.059033
     35 H6'2         6.5930     0.8740     0.7970 hc         1 YX0       0.059033
     36 H6'3         5.8350     0.1730     2.2370 hc         1 YX0       0.059033
     37 H            3.9250     2.0990     1.0820 hn         1 YX0       0.416000
     38 H7           2.6350    -1.2300    -1.2220 ha         1 YX0       0.206000
     39 C11          5.0120    -0.5370     0.3680 c2         1 YX0       0.117900
@<TRIPOS>BOND
     1     1     2 1   
     2     1     7 1   
     3     1    11 1   
     4     1    20 1   
     5     2     3 1   
     6     2     8 1   
     7     2    21 1   
     8     3     4 1   
     9     3     9 1   
    10     3    22 1   
    11     4     5 1   
    12     4    10 1   
    13     4    24 1   
    14     5     6 1   
    15     5    11 1   
    16     5    26 1   
    17     6    28 1   
    18     6    29 1   
    19     6    30 1   
    20     7    17 1   
    21     8    23 1   
    22     9    25 1   
    23    10    27 1   
    24    12    33 1   
    25    12    39 1   
    26    13    34 1   
    27    13    35 1   
    28    13    36 1   
    29    13    39 1   
    30    14    15 1   
    31    14    19 1   
    32    14    39 2   
    33    15    16 2   
    34    15    38 1   
    35    16    17 1   
    36    16    18 1   
    37    17    31 1   
    38    17    32 1   
    39    18    19 1   
    40    19    37 1   
@<TRIPOS>SUBSTRUCTURE
     1 YX0         1 TEMP              0 ****  ****    0 ROOT
