@<TRIPOS>MOLECULE
YX0
   39    40     1     0     0
SMALL
bcc


@<TRIPOS>ATOM
      1 C1          -1.7850    -0.3870    -1.2260 c6         1 YX0       0.311900
      2 C2          -2.6890    -1.3500    -0.4510 c6         1 YX0       0.094100
      3 C3          -2.9120    -0.8360     0.9680 c6         1 YX0       0.161100
      4 C4          -3.4540     0.5860     0.9260 c6         1 YX0       0.125100
      5 C5          -2.4950     1.4540     0.1060 c6         1 YX0       0.108100
      6 C6          -2.9840     2.8760    -0.0710 c3         1 YX0      -0.092100
      7 O1          -0.5050    -0.4580    -0.6770 os         1 YX0      -0.413600
      8 O2          -2.1380    -2.6420    -0.3690 oh         1 YX0      -0.587800
      9 O3          -3.8080    -1.6490     1.6820 oh         1 YX0      -0.581800
     10 O4          -4.7520     0.5540     0.3830 oh         1 YX0      -0.576800
     11 O5          -2.3060     0.9090    -1.1960 os         1 YX0      -0.423600
     12 O6           5.9710    -0.5990    -0.7800 oh         1 YX0      -0.497100
     13 C12          5.9760     0.4230     1.3630 c3         1 YX0      -0.047900
     14 C10          3.8570     0.0330     0.0950 cc         1 YX0      -0.110000
     15 C9           2.9560    -0.2990    -0.9950 cc         1 YX0      -0.230000
     16 C8           1.7560     0.1700    -0.6560 cd         1 YX0       0.060900
     17 C7           0.4840     0.2290    -1.4140 c3         1 YX0       0.192600
     18 O            1.7440     0.7530     0.5720 os         1 YX0      -0.124400
     19 N            3.0340     0.5700     1.1440 na         1 YX0      -0.388500
     20 H1          -1.7600    -0.6640    -2.2900 h2         1 YX0       0.064700
     21 H2          -3.6540    -1.3690    -0.9720 h1         1 YX0       0.074700
     22 H3          -1.9410    -0.7890     1.4820 h1         1 YX0       0.058700
     23 HA          -2.3720    -3.1290    -1.1640 ho         1 YX0       0.409000
     24 H4          -3.4650     0.9850     1.9510 h1         1 YX0       0.049700
     25 HB          -3.4470    -2.5410     1.6900 ho         1 YX0       0.417000
     26 H5          -1.5390     1.4800     0.6460 h1         1 YX0       0.060700
     27 HC          -5.1590     1.4150     0.5150 ho         1 YX0       0.404000
     28 H6C1        -3.1800     3.3340     0.9000 hc         1 YX0       0.047033
     29 H6C2        -2.2330     3.4830    -0.5760 hc         1 YX0       0.047033
     30 H6C3        -3.9000     2.9200    -0.6620 hc         1 YX0       0.047033
     31 H1'1         0.6370    -0.2250    -2.4000 h1         1 YX0       0.051700
     32 H1'2         0.2080     1.2780    -1.5750 h1         1 YX0       0.051700
     33 H8           5.4410    -0.9110    -1.5210 ho         1 YX0       0.424000
     34 H6'1         6.8240     1.0330     1.0420 hc         1 YX0       0.059033
     35 H6'2         5.3620     1.0200     2.0340 hc         1 YX0       0.059033
     36 H6'3         6.3810    -0.4130     1.9390 hc         1 YX0       0.059033
     37 H            2.8780    -0.1300     1.8660 hn         1 YX0       0.360800
     38 H7           3.1970    -0.7810    -1.9290 ha         1 YX0       0.156000
     39 C11          5.1910    -0.0450     0.1880 c2         1 YX0       0.117900
@<TRIPOS>BOND
     1     1     2 1   
     2     1     7 1   
     3     1    11 1   
     4     1    20 1   
     5     2     3 1   
     6     2     8 1   
     7     2    21 1   
     8     3     4 1   
     9     3     9 1   
    10     3    22 1   
    11     4     5 1   
    12     4    10 1   
    13     4    24 1   
    14     5     6 1   
    15     5    11 1   
    16     5    26 1   
    17     6    28 1   
    18     6    29 1   
    19     6    30 1   
    20     7    17 1   
    21     8    23 1   
    22     9    25 1   
    23    10    27 1   
    24    12    33 1   
    25    12    39 1   
    26    13    34 1   
    27    13    35 1   
    28    13    36 1   
    29    13    39 1   
    30    14    15 1   
    31    14    19 1   
    32    14    39 2   
    33    15    16 2   
    34    15    38 1   
    35    16    17 1   
    36    16    18 1   
    37    17    31 1   
    38    17    32 1   
    39    18    19 1   
    40    19    37 1   
@<TRIPOS>SUBSTRUCTURE
     1 YX0         1 TEMP              0 ****  ****    0 ROOT
