@<TRIPOS>MOLECULE
YX1
   35    35     1     0     0
SMALL
No Charge or Current Charge


@<TRIPOS>ATOM
      1 O3           0.3980     2.4970     0.6940 oh         1 YX1      -0.637000
      2 C3           0.8710     1.3270     0.0090 c6         1 YX1       0.165300
      3 C4           2.3880     1.1310     0.3080 c6         1 YX1       0.095300
      4 O4           3.1200     2.3090    -0.1040 oh         1 YX1      -0.724000
      5 C5           2.8850    -0.1620    -0.4160 c6         1 YX1       0.154300
      6 C6           4.3820    -0.5010    -0.1070 c3         1 YX1       0.170600
      7 O6           4.8260    -1.7280    -0.7180 oh         1 YX1      -0.706000
      8 O5           2.0700    -1.2880    -0.0020 os         1 YX1      -0.467000
      9 C1           0.6860    -1.1630    -0.3370 c6         1 YX1       0.377300
     10 O1           0.1130    -2.3910     0.0660 oh         1 YX1      -0.621000
     11 C2           0.0520     0.0610     0.4040 c6         1 YX1       0.099700
     12 N2          -1.3880     0.2360     0.0880 ns         1 YX1      -0.491900
     13 CAM         -2.4390    -0.2960     0.7890 c          1 YX1       0.674100
     14 OAG         -2.2860    -0.9480     1.8120 o          1 YX1      -0.613100
     15 NAN         -3.7140    -0.0100     0.2380 n          1 YX1      -0.317200
     16 CAH         -4.9280    -0.5240     0.9100 c3         1 YX1       0.080300
     17 NAO         -3.9190     0.7790    -0.9600 n7         1 YX1      -0.376900
     18 OAP         -4.4460     0.2820    -2.2370 oh         1 YX1      -0.502300
     19 H3           1.1210     3.1560     0.5790 ho         1 YX1       0.456000
     20 HA           0.7590     1.4750    -1.0750 h1         1 YX1       0.036700
     21 H4           2.5040     0.9770     1.3930 h1         1 YX1       0.062700
     22 H2           0.1610    -0.1020     1.4860 h1         1 YX1       0.121700
     23 HB           3.9600     2.3400     0.4140 ho         1 YX1       0.512000
     24 H5           2.7820    -0.0330    -1.5040 h1         1 YX1       0.057700
     25 H6C1         5.0050     0.3330    -0.4570 h1         1 YX1       0.026700
     26 H6C2         4.5000    -0.5620     0.9840 h1         1 YX1       0.026700
     27 H6           5.7470    -1.8890    -0.4040 ho         1 YX1       0.506000
     28 H1           0.5810    -1.0450    -1.4250 h2         1 YX1       0.009700
     29 HC           0.8900    -2.9800     0.1570 ho         1 YX1       0.458000
     30 HD          -1.6480     0.7780    -0.7240 hn         1 YX1       0.325500
     31 HAH1        -4.9910    -0.1130     1.9260 h1         1 YX1       0.048367
     32 HAH2        -5.8280    -0.2350     0.3530 h1         1 YX1       0.048367
     33 HAH3        -4.8830    -1.6190     0.9670 h1         1 YX1       0.048367
     34 HAO         -4.3250     1.7170    -0.7670 hn         1 YX1       0.438000
     35 HAP         -3.6770     0.2980    -2.8580 ho         1 YX1       0.457000
@<TRIPOS>BOND
     1     1     2 1   
     2     1    19 1   
     3     2     3 1   
     4     2    11 1   
     5     2    20 1   
     6     3     4 1   
     7     3     5 1   
     8     3    21 1   
     9     4    23 1   
    10     5     6 1   
    11     5     8 1   
    12     5    24 1   
    13     6     7 1   
    14     6    25 1   
    15     6    26 1   
    16     7    27 1   
    17     8     9 1   
    18     9    10 1   
    19     9    11 1   
    20     9    28 1   
    21    10    29 1   
    22    11    12 1   
    23    11    22 1   
    24    12    13 1   
    25    12    30 1   
    26    13    14 2   
    27    13    15 1   
    28    15    16 1   
    29    15    17 1   
    30    16    31 1   
    31    16    32 1   
    32    16    33 1   
    33    17    18 1   
    34    17    34 1   
    35    18    35 1   
@<TRIPOS>SUBSTRUCTURE
     1 YX1         1 TEMP              0 ****  ****    0 ROOT
