@<TRIPOS>MOLECULE
YX1
   35    35     1     0     0
SMALL
abcg2


@<TRIPOS>ATOM
      1 O3           0.4580     2.4160     1.0290 oh         1 YX1      -0.637000
      2 C3           0.9260     1.3990     0.1830 c6         1 YX1       0.165300
      3 C4           2.3940     1.0790     0.4430 c6         1 YX1       0.095300
      4 O4           3.1320     2.2330     0.1050 oh         1 YX1      -0.724000
      5 C5           2.8190    -0.1370    -0.3880 c6         1 YX1       0.154300
      6 C6           4.2410    -0.5580    -0.0910 c3         1 YX1       0.170600
      7 O6           4.5960    -1.6100    -0.9540 oh         1 YX1      -0.706000
      8 O5           1.9700    -1.2240    -0.0850 os         1 YX1      -0.467000
      9 C1           0.6260    -0.9970    -0.4310 c6         1 YX1       0.377300
     10 O1          -0.0960    -2.1350    -0.1550 oh         1 YX1      -0.621000
     11 C2           0.0610     0.1610     0.3960 c6         1 YX1       0.099700
     12 N2          -1.3040     0.4270     0.0430 ns         1 YX1      -0.491900
     13 CAM         -2.3500     0.0150     0.7910 c          1 YX1       0.674100
     14 OAG         -2.2460    -0.4680     1.9090 o          1 YX1      -0.613100
     15 NAN         -3.5970     0.2290     0.2300 n          1 YX1      -0.317200
     16 CAH         -4.7740    -0.3040     0.8930 c3         1 YX1       0.080300
     17 NAO         -3.6450     0.4720    -1.1210 n7         1 YX1      -0.376900
     18 OAP         -3.9690    -0.7010    -1.8340 oh         1 YX1      -0.502300
     19 H3           1.0150     3.1900     0.8910 ho         1 YX1       0.456000
     20 HA           0.8390     1.7020    -0.8750 h1         1 YX1       0.036700
     21 H4           2.5130     0.8330     1.5080 h1         1 YX1       0.062700
     22 H2           0.1000    -0.1210     1.4510 h1         1 YX1       0.121700
     23 HB           3.9170     2.2810     0.6580 ho         1 YX1       0.512000
     24 H5           2.7380     0.1240    -1.4560 h1         1 YX1       0.057700
     25 H6C1         4.8940     0.3110    -0.2280 h1         1 YX1       0.026700
     26 H6C2         4.3130    -0.8510     0.9660 h1         1 YX1       0.026700
     27 H6           5.5130    -1.8420    -0.7800 ho         1 YX1       0.506000
     28 H1           0.5690    -0.7330    -1.5030 h2         1 YX1       0.009700
     29 HC           0.0260    -2.7710    -0.8670 ho         1 YX1       0.458000
     30 HD          -1.5040     0.8090    -0.8690 hn         1 YX1       0.325500
     31 HAH1        -4.7500    -0.0620     1.9510 h1         1 YX1       0.048367
     32 HAH2        -5.6540     0.1720     0.4630 h1         1 YX1       0.048367
     33 HAH3        -4.8730    -1.3850     0.7830 h1         1 YX1       0.048367
     34 HAO         -4.4230     1.0960    -1.3020 hn         1 YX1       0.438000
     35 HAP         -3.1470    -0.9450    -2.2730 ho         1 YX1       0.457000
@<TRIPOS>BOND
     1     1     2 1   
     2     1    19 1   
     3     2     3 1   
     4     2    11 1   
     5     2    20 1   
     6     3     4 1   
     7     3     5 1   
     8     3    21 1   
     9     4    23 1   
    10     5     6 1   
    11     5     8 1   
    12     5    24 1   
    13     6     7 1   
    14     6    25 1   
    15     6    26 1   
    16     7    27 1   
    17     8     9 1   
    18     9    10 1   
    19     9    11 1   
    20     9    28 1   
    21    10    29 1   
    22    11    12 1   
    23    11    22 1   
    24    12    13 1   
    25    12    30 1   
    26    13    14 2   
    27    13    15 1   
    28    15    16 1   
    29    15    17 1   
    30    16    31 1   
    31    16    32 1   
    32    16    33 1   
    33    17    18 1   
    34    17    34 1   
    35    18    35 1   
@<TRIPOS>SUBSTRUCTURE
     1 YX1         1 TEMP              0 ****  ****    0 ROOT
