@<TRIPOS>MOLECULE
YX2
   29    30     1     0     0
SMALL
No Charge or Current Charge


@<TRIPOS>ATOM
      1 C10         26.5580   -38.1380     7.2240 ca         1 YX2      -0.124000
      2 C13         27.8180   -40.6750     6.9150 ca         1 YX2      -0.018000
      3 C15         27.0620   -39.7740    11.8540 c          1 YX2       0.660300
      4 C01         31.1100   -43.7060    10.8860 c3         1 YX2      -0.091100
      5 C02         29.7790   -43.8360    10.1120 c3         1 YX2      -0.159400
      6 C03         29.4170   -42.5390     9.3780 c          1 YX2       0.606100
      7 O04         30.0010   -42.1910     8.3630 o          1 YX2      -0.573100
      8 N05         28.3990   -41.8170     9.9630 ns         1 YX2      -0.398100
      9 C06         27.7810   -40.6440     9.5450 cc         1 YX2       0.112400
     10 C07         27.1800   -39.7120    10.3760 cd         1 YX2      -0.136100
     11 O08         26.7060   -38.6540     9.6360 os         1 YX2      -0.172200
     12 C09         26.9460   -38.9130     8.3210 ca         1 YX2       0.088100
     13 C11         26.8310   -38.6440     5.9370 ca         1 YX2      -0.071000
     14 C12         27.4480   -39.9090     5.7860 ca         1 YX2      -0.145000
     15 C14         27.5860   -40.1310     8.1910 ca         1 YX2      -0.127800
     16 O16         27.4700   -40.6970    12.5430 o          1 YX2      -0.632100
     17 N17         26.4500   -38.7180    12.4240 nt         1 YX2      -0.589000
     18 H1          26.0510   -37.1860     7.3620 ha         1 YX2       0.130000
     19 H2          28.2440   -41.6640     6.7780 ha         1 YX2       0.136000
     20 H3          31.3500   -44.6460    11.3980 hc         1 YX2       0.046033
     21 H4          31.9360   -43.4690    10.2040 hc         1 YX2       0.046033
     22 H5          31.0460   -42.9110    11.6390 hc         1 YX2       0.046033
     23 H6          28.9900   -44.1030    10.8260 hc         1 YX2       0.066700
     24 H7          29.8900   -44.6370     9.3720 hc         1 YX2       0.066700
     25 H8          28.1570   -42.1440    10.8910 hn         1 YX2       0.348500
     26 H9          26.5440   -38.0720     5.0570 ha         1 YX2       0.117000
     27 H10         27.6260   -40.3050     4.7880 ha         1 YX2       0.118000
     28 H11         26.3330   -38.6930    13.4250 hn         1 YX2       0.324500
     29 H12         26.1160   -37.9650    11.8420 hn         1 YX2       0.324500
@<TRIPOS>BOND
     1     1    12 ar  
     2     1    13 ar  
     3     1    18 1   
     4     2    14 ar  
     5     2    15 ar  
     6     2    19 1   
     7     3    10 1   
     8     3    16 2   
     9     3    17 1   
    10     4     5 1   
    11     4    20 1   
    12     4    21 1   
    13     4    22 1   
    14     5     6 1   
    15     5    23 1   
    16     5    24 1   
    17     6     7 2   
    18     6     8 1   
    19     8     9 1   
    20     8    25 1   
    21     9    10 2   
    22     9    15 1   
    23    10    11 1   
    24    11    12 1   
    25    12    15 ar  
    26    13    14 ar  
    27    13    26 1   
    28    14    27 1   
    29    17    28 1   
    30    17    29 1   
@<TRIPOS>SUBSTRUCTURE
     1 YX2         1 TEMP              0 ****  ****    0 ROOT
