@<TRIPOS>MOLECULE
YX2
   29    30     1     0     0
SMALL
abcg2


@<TRIPOS>ATOM
      1 C10         26.5540   -38.1720     7.3010 ca         1 YX2      -0.124000
      2 C13         27.7240   -40.7170     6.8130 ca         1 YX2      -0.018000
      3 C15         27.2530   -39.8660    11.7770 c          1 YX2       0.660300
      4 C01         30.7640   -43.4350    11.1960 c3         1 YX2      -0.091100
      5 C02         29.8890   -43.8120     9.9980 c3         1 YX2      -0.159400
      6 C03         29.4160   -42.5770     9.2690 c          1 YX2       0.606100
      7 O04         29.9990   -42.0990     8.3160 o          1 YX2      -0.573100
      8 N05         28.2940   -42.0140     9.8090 ns         1 YX2      -0.398100
      9 C06         27.7760   -40.7830     9.4450 cc         1 YX2       0.112400
     10 C07         27.3060   -39.8400    10.3090 cd         1 YX2      -0.136100
     11 O08         26.8070   -38.7630     9.6430 os         1 YX2      -0.172200
     12 C09         26.9540   -39.0120     8.3280 ca         1 YX2       0.088100
     13 C11         26.7520   -38.6390     6.0150 ca         1 YX2      -0.071000
     14 C12         27.3220   -39.8980     5.7760 ca         1 YX2      -0.145000
     15 C14         27.5460   -40.2600     8.1230 ca         1 YX2      -0.127800
     16 O16         27.5660   -40.8890    12.3800 o          1 YX2      -0.632100
     17 N17         26.8540   -38.7400    12.3800 nt         1 YX2      -0.589000
     18 H1          26.1040   -37.2080     7.4970 ha         1 YX2       0.130000
     19 H2          28.1580   -41.6840     6.6100 ha         1 YX2       0.136000
     20 H3          31.1260   -44.3340    11.6940 hc         1 YX2       0.046033
     21 H4          31.6310   -42.8530    10.8850 hc         1 YX2       0.046033
     22 H5          30.2090   -42.8500    11.9300 hc         1 YX2       0.046033
     23 H6          29.0370   -44.4070    10.3340 hc         1 YX2       0.066700
     24 H7          30.4590   -44.4220     9.2980 hc         1 YX2       0.066700
     25 H8          27.9950   -42.3560    10.7120 hn         1 YX2       0.348500
     26 H9          26.4550   -38.0230     5.1770 ha         1 YX2       0.117000
     27 H10         27.4490   -40.2330     4.7550 ha         1 YX2       0.118000
     28 H11         26.8020   -38.7070    13.3850 hn         1 YX2       0.324500
     29 H12         26.6230   -37.8990    11.8780 hn         1 YX2       0.324500
@<TRIPOS>BOND
     1     1    12 ar  
     2     1    13 ar  
     3     1    18 1   
     4     2    14 ar  
     5     2    15 ar  
     6     2    19 1   
     7     3    10 1   
     8     3    16 2   
     9     3    17 1   
    10     4     5 1   
    11     4    20 1   
    12     4    21 1   
    13     4    22 1   
    14     5     6 1   
    15     5    23 1   
    16     5    24 1   
    17     6     7 2   
    18     6     8 1   
    19     8     9 1   
    20     8    25 1   
    21     9    10 2   
    22     9    15 1   
    23    10    11 1   
    24    11    12 1   
    25    12    15 ar  
    26    13    14 ar  
    27    13    26 1   
    28    14    27 1   
    29    17    28 1   
    30    17    29 1   
@<TRIPOS>SUBSTRUCTURE
     1 YX2         1 TEMP              0 ****  ****    0 ROOT
