@<TRIPOS>MOLECULE
YX4
   69    74     1     0     0
SMALL
abcg2


@<TRIPOS>ATOM
      1 C16         17.0050    84.8520    42.1130 cc         1 YX4       0.227300
      2 C15          9.4110    77.9860    39.5220 c3         1 YX4       0.241300
      3 C20         15.0410    87.0430    40.0780 c3         1 YX4       0.061900
      4 C21         14.8260    80.9560    36.1610 c6         1 YX4       0.155600
      5 C23         16.6810    79.5970    36.5540 c6         1 YX4       0.155600
      6 C24         16.1940    79.2050    37.9390 c6         1 YX4      -0.111900
      7 C11         14.6890    84.1650    41.2080 ca         1 YX4      -0.053000
      8 C12         13.3790    84.6190    41.4390 ca         1 YX4       0.316900
      9 C27         14.7200    79.8710    39.8740 c3         1 YX4       0.055000
     10 C1          11.5360    81.5890    40.6440 cp         1 YX4      -0.176500
     11 C2          12.2680    80.4480    40.2700 ca         1 YX4      -0.020200
     12 N3          13.6230    80.7330    40.3010 na         1 YX4      -0.082600
     13 C4          13.7710    82.0500    40.6710 ca         1 YX4      -0.046200
     14 C5          12.5020    82.6140    40.9060 cp         1 YX4       0.345500
     15 C6          10.1470    81.5660    40.6780 ca         1 YX4      -0.046000
     16 C7           9.4930    80.4050    40.3270 ca         1 YX4      -0.119000
     17 C8          10.1870    79.2430    39.9460 ca         1 YX4      -0.107300
     18 C9          11.5700    79.2900    39.9340 ca         1 YX4       0.143000
     19 C10         14.8970    82.8470    40.8130 ca         1 YX4      -0.076000
     20 N13         12.3040    83.8690    41.2860 nb         1 YX4      -0.615000
     21 C14         15.8340    85.0460    41.4090 cd         1 YX4      -0.145000
     22 N17         17.7360    85.9790    42.0060 nc         1 YX4      -0.362000
     23 N18         17.0990    86.8390    41.2860 nd         1 YX4      -0.197800
     24 N19         15.9550    86.3000    40.9180 na         1 YX4       0.137800
     25 O22         15.6160    79.8930    35.6800 os         1 YX4      -0.447000
     26 C25         15.3170    80.3100    38.5310 c6         1 YX4      -0.063700
     27 C26         14.2200    80.6550    37.5220 c6         1 YX4      -0.111900
     28 C28         15.7230    79.7440    41.0070 ca         1 YX4       0.293300
     29 C29         15.3470    79.1470    42.2060 ca         1 YX4       0.142000
     30 C30         16.2340    79.0230    43.2520 ca         1 YX4      -0.116000
     31 C31         17.5170    79.5120    43.0630 ca         1 YX4      -0.127000
     32 C32         17.8290    80.0940    41.8450 ca         1 YX4       0.322900
     33 N33         16.9530    80.2070    40.8550 nb         1 YX4      -0.654000
     34 F34         12.2690    78.1980    39.5620 f          1 YX4      -0.184000
     35 C35          9.7800    76.7740    40.3820 c3         1 YX4      -0.104100
     36 O36          8.0210    78.2170    39.6360 oh         1 YX4      -0.658000
     37 F37         14.0990    78.6830    42.3410 f          1 YX4      -0.158000
     38 C38          9.6490    77.7060    38.0390 c3         1 YX4      -0.104100
     39 C39         17.4570    83.6600    42.8770 c3         1 YX4      -0.111400
     40 H48         15.6060    87.8140    39.5630 h1         1 YX4       0.065700
     41 H47         14.5910    86.3800    39.3450 h1         1 YX4       0.065700
     42 H49         14.2570    87.5100    40.6710 h1         1 YX4       0.065700
     43 H51         15.4230    81.8790    36.2250 h1         1 YX4       0.045700
     44 H50         14.0400    81.1290    35.4240 h1         1 YX4       0.045700
     45 H53         17.2490    78.7820    36.1020 h1         1 YX4       0.045700
     46 H52         17.3570    80.4620    36.6400 h1         1 YX4       0.045700
     47 H55         15.6180    78.2750    37.8770 hc         1 YX4       0.056200
     48 H54         17.0590    79.0060    38.5730 hc         1 YX4       0.056200
     49 H46         13.2120    85.6350    41.7780 h4         1 YX4       0.022100
     50 H59         14.2950    78.8830    39.7150 h1         1 YX4       0.096700
     51 H43          9.5910    82.4480    40.9640 ha         1 YX4       0.136000
     52 H44          8.4140    80.3920    40.3320 ha         1 YX4       0.131000
     53 H45         15.8980    82.4890    40.6170 ha         1 YX4       0.147000
     54 H56         15.9420    81.1980    38.6710 hc         1 YX4       0.070700
     55 H58         13.6490    81.5300    37.8410 hc         1 YX4       0.056200
     56 H57         13.5140    79.8220    37.4290 hc         1 YX4       0.056200
     57 H60         15.9310    78.5560    44.1810 ha         1 YX4       0.143000
     58 H61         18.2580    79.4410    43.8470 ha         1 YX4       0.134000
     59 H62         18.8210    80.4870    41.6610 h4         1 YX4       0.031100
     60 H63          9.6220    76.9850    41.4420 hc         1 YX4       0.049033
     61 H64          9.1460    75.9310    40.1050 hc         1 YX4       0.049033
     62 H65         10.8140    76.4620    40.2560 hc         1 YX4       0.049033
     63 H66          7.7690    78.1710    40.5650 ho         1 YX4       0.444000
     64 H67          9.0710    76.8330    37.7290 hc         1 YX4       0.049033
     65 H68          9.3390    78.5560    37.4290 hc         1 YX4       0.049033
     66 H69         10.6960    77.5020    37.8280 hc         1 YX4       0.049033
     67 H42         18.0840    83.9580    43.7170 hc         1 YX4       0.048033
     68 H41         16.6120    83.0950    43.2670 hc         1 YX4       0.048033
     69 H40         18.0430    82.9830    42.2550 hc         1 YX4       0.048033
@<TRIPOS>BOND
     1     1    21 2   
     2     1    22 1   
     3     1    39 1   
     4     2    17 1   
     5     2    35 1   
     6     2    36 1   
     7     2    38 1   
     8     3    24 1   
     9     3    40 1   
    10     3    41 1   
    11     3    42 1   
    12     4    25 1   
    13     4    27 1   
    14     4    43 1   
    15     4    44 1   
    16     5     6 1   
    17     5    25 1   
    18     5    45 1   
    19     5    46 1   
    20     6    26 1   
    21     6    47 1   
    22     6    48 1   
    23     7     8 ar  
    24     7    19 ar  
    25     7    21 1   
    26     8    20 ar  
    27     8    49 1   
    28     9    12 1   
    29     9    26 1   
    30     9    28 1   
    31     9    50 1   
    32    10    11 ar  
    33    10    14 1   
    34    10    15 ar  
    35    11    12 1   
    36    11    18 ar  
    37    12    13 1   
    38    13    14 ar  
    39    13    19 ar  
    40    14    20 ar  
    41    15    16 ar  
    42    15    51 1   
    43    16    17 ar  
    44    16    52 1   
    45    17    18 ar  
    46    18    34 1   
    47    19    53 1   
    48    21    24 1   
    49    22    23 2   
    50    23    24 1   
    51    26    27 1   
    52    26    54 1   
    53    27    55 1   
    54    27    56 1   
    55    28    29 ar  
    56    28    33 ar  
    57    29    30 ar  
    58    29    37 1   
    59    30    31 ar  
    60    30    57 1   
    61    31    32 ar  
    62    31    58 1   
    63    32    33 ar  
    64    32    59 1   
    65    35    60 1   
    66    35    61 1   
    67    35    62 1   
    68    36    63 1   
    69    38    64 1   
    70    38    65 1   
    71    38    66 1   
    72    39    67 1   
    73    39    68 1   
    74    39    69 1   
@<TRIPOS>SUBSTRUCTURE
     1 YX4         1 TEMP              0 ****  ****    0 ROOT
