@<TRIPOS>MOLECULE
YX4
   69    74     1     0     0
SMALL
No Charge or Current Charge


@<TRIPOS>ATOM
      1 C16         17.1540    85.1080    41.2190 cc         1 YX4       0.227300
      2 C15          9.2900    78.0290    39.4580 c3         1 YX4       0.241300
      3 C20         14.5010    87.5400    41.1100 c3         1 YX4       0.061900
      4 C21         15.4020    80.5370    36.0360 c6         1 YX4       0.155600
      5 C23         17.1670    79.1250    36.8880 c6         1 YX4       0.155600
      6 C24         16.4300    78.9090    38.2310 c6         1 YX4      -0.111900
      7 C11         14.6890    84.3050    41.1890 ca         1 YX4      -0.053000
      8 C12         13.3770    84.6210    41.6650 ca         1 YX4       0.316900
      9 C27         14.6990    79.8980    39.8980 c3         1 YX4       0.055000
     10 C1          11.5770    81.5220    40.8200 cp         1 YX4      -0.176500
     11 C2          12.2180    80.4690    40.1700 ca         1 YX4      -0.020200
     12 N3          13.5810    80.8610    40.0960 na         1 YX4      -0.082600
     13 C4          13.7880    82.1570    40.6140 ca         1 YX4      -0.046200
     14 C5          12.5540    82.5620    41.1000 cp         1 YX4       0.345500
     15 C6          10.1940    81.4740    41.0520 ca         1 YX4      -0.046000
     16 C7           9.4730    80.3430    40.6200 ca         1 YX4      -0.119000
     17 C8          10.1110    79.2550    39.9430 ca         1 YX4      -0.107300
     18 C9          11.5140    79.3420    39.7010 ca         1 YX4       0.143000
     19 C10         14.8970    83.0110    40.6420 ca         1 YX4      -0.076000
     20 N13         12.3160    83.7720    41.6250 nb         1 YX4      -0.615000
     21 C14         15.7950    85.3020    41.2590 cd         1 YX4      -0.145000
     22 N17         17.8180    86.3000    41.2230 nc         1 YX4      -0.362000
     23 N18         16.9410    87.2640    41.2170 nd         1 YX4      -0.197800
     24 N19         15.6970    86.6910    41.2290 na         1 YX4       0.137800
     25 O22         16.2090    79.3580    35.8350 os         1 YX4      -0.447000
     26 C25         15.5040    80.1200    38.5620 c6         1 YX4      -0.063700
     27 C26         14.5770    80.3960    37.3380 c6         1 YX4      -0.111900
     28 C28         15.5350    79.7400    41.1840 ca         1 YX4       0.293300
     29 C29         15.0030    79.0300    42.2910 ca         1 YX4       0.142000
     30 C30         15.7650    78.9090    43.4640 ca         1 YX4      -0.116000
     31 C31         17.0380    79.5050    43.4940 ca         1 YX4      -0.127000
     32 C32         17.4980    80.1970    42.3590 ca         1 YX4       0.322900
     33 N33         16.7670    80.3200    41.2270 nb         1 YX4      -0.654000
     34 F34         12.1560    78.3810    39.0000 f          1 YX4      -0.184000
     35 C35          9.8420    76.6970    40.0270 c3         1 YX4      -0.104100
     36 O36          7.9380    78.1100    39.9150 oh         1 YX4      -0.658000
     37 F37         13.7740    78.4650    42.2370 f          1 YX4      -0.158000
     38 C38          9.2210    77.9880    37.9140 c3         1 YX4      -0.104100
     39 C39         17.9520    83.8330    41.2570 c3         1 YX4      -0.111400
     40 H48         14.7840    88.5280    40.7280 h1         1 YX4       0.065700
     41 H47         13.7900    87.0840    40.4110 h1         1 YX4       0.065700
     42 H49         14.0350    87.6590    42.0950 h1         1 YX4       0.065700
     43 H51         16.0540    81.4210    36.0890 h1         1 YX4       0.045700
     44 H50         14.7280    80.6600    35.1760 h1         1 YX4       0.045700
     45 H53         17.7630    78.2350    36.6390 h1         1 YX4       0.045700
     46 H52         17.8490    79.9850    36.9590 h1         1 YX4       0.045700
     47 H55         15.8380    77.9850    38.1730 hc         1 YX4       0.056200
     48 H54         17.1710    78.7540    39.0250 hc         1 YX4       0.056200
     49 H46         13.1660    85.5800    42.1300 h4         1 YX4       0.022100
     50 H59         14.2450    78.9140    39.7680 h1         1 YX4       0.096700
     51 H43          9.6870    82.3000    41.5470 ha         1 YX4       0.136000
     52 H44          8.4020    80.3380    40.8040 ha         1 YX4       0.131000
     53 H45         15.8420    82.7040    40.2150 ha         1 YX4       0.147000
     54 H56         16.1350    81.0080    38.7040 hc         1 YX4       0.070700
     55 H58         13.9970    81.3160    37.4900 hc         1 YX4       0.056200
     56 H57         13.8510    79.5810    37.2200 hc         1 YX4       0.056200
     57 H60         15.3780    78.3680    44.3240 ha         1 YX4       0.143000
     58 H61         17.6650    79.4370    44.3790 ha         1 YX4       0.134000
     59 H62         18.4800    80.6690    42.3580 h4         1 YX4       0.031100
     60 H63          9.9710    76.7640    41.1140 hc         1 YX4       0.049033
     61 H64          9.1540    75.8690    39.8160 hc         1 YX4       0.049033
     62 H65         10.8080    76.4300    39.5870 hc         1 YX4       0.049033
     63 H66          7.9710    78.0520    40.8930 ho         1 YX4       0.444000
     64 H67          8.5720    77.1720    37.5740 hc         1 YX4       0.049033
     65 H68          8.8180    78.9290    37.5230 hc         1 YX4       0.049033
     66 H69         10.2100    77.8330    37.4700 hc         1 YX4       0.049033
     67 H42         18.9680    84.0120    41.6290 hc         1 YX4       0.048033
     68 H41         17.4850    83.1030    41.9260 hc         1 YX4       0.048033
     69 H40         18.0390    83.3920    40.2570 hc         1 YX4       0.048033
@<TRIPOS>BOND
     1     1    21 2   
     2     1    22 1   
     3     1    39 1   
     4     2    17 1   
     5     2    35 1   
     6     2    36 1   
     7     2    38 1   
     8     3    24 1   
     9     3    40 1   
    10     3    41 1   
    11     3    42 1   
    12     4    25 1   
    13     4    27 1   
    14     4    43 1   
    15     4    44 1   
    16     5     6 1   
    17     5    25 1   
    18     5    45 1   
    19     5    46 1   
    20     6    26 1   
    21     6    47 1   
    22     6    48 1   
    23     7     8 ar  
    24     7    19 ar  
    25     7    21 1   
    26     8    20 ar  
    27     8    49 1   
    28     9    12 1   
    29     9    26 1   
    30     9    28 1   
    31     9    50 1   
    32    10    11 ar  
    33    10    14 1   
    34    10    15 ar  
    35    11    12 1   
    36    11    18 ar  
    37    12    13 1   
    38    13    14 ar  
    39    13    19 ar  
    40    14    20 ar  
    41    15    16 ar  
    42    15    51 1   
    43    16    17 ar  
    44    16    52 1   
    45    17    18 ar  
    46    18    34 1   
    47    19    53 1   
    48    21    24 1   
    49    22    23 2   
    50    23    24 1   
    51    26    27 1   
    52    26    54 1   
    53    27    55 1   
    54    27    56 1   
    55    28    29 ar  
    56    28    33 ar  
    57    29    30 ar  
    58    29    37 1   
    59    30    31 ar  
    60    30    57 1   
    61    31    32 ar  
    62    31    58 1   
    63    32    33 ar  
    64    32    59 1   
    65    35    60 1   
    66    35    61 1   
    67    35    62 1   
    68    36    63 1   
    69    38    64 1   
    70    38    65 1   
    71    38    66 1   
    72    39    67 1   
    73    39    68 1   
    74    39    69 1   
@<TRIPOS>SUBSTRUCTURE
     1 YX4         1 TEMP              0 ****  ****    0 ROOT
