@<TRIPOS>MOLECULE
YX5
   51    53     1     0     0
SMALL
No Charge or Current Charge


@<TRIPOS>ATOM
      1 C02        -32.7980    -8.3660    -9.4280 c          1 YX5       0.605100
      2 C03        -31.4120    -8.8700    -8.9790 c3         1 YX5      -0.099100
      3 C04        -31.4880   -10.2980    -8.4390 ca         1 YX5      -0.088300
      4 C05        -32.2340   -10.5800    -7.2790 ca         1 YX5      -0.066000
      5 C06        -32.3120   -11.8940    -6.7870 ca         1 YX5      -0.144500
      6 C07        -31.6500   -12.9460    -7.4410 ca         1 YX5       0.283000
      7 C11        -32.7860   -15.5920    -9.0830 c3         1 YX5      -0.345400
      8 C12        -34.2530   -15.2770    -8.6960 c3         1 YX5      -0.064100
      9 C14        -30.8900   -12.6610    -8.5920 ca         1 YX5      -0.144500
     10 C15        -30.8090   -11.3480    -9.0870 ca         1 YX5      -0.066000
     11 C17        -32.7220    -9.6770   -11.5920 c6         1 YX5       0.083000
     12 C18        -32.9770    -9.5780   -13.1220 c6         1 YX5       0.205800
     13 C19        -34.5040    -7.9540   -11.2180 c6         1 YX5       0.083000
     14 C20        -34.7100    -7.8600   -12.7520 c6         1 YX5       0.205800
     15 C22        -34.9980    -9.4980   -14.6480 ca         1 YX5       0.588900
     16 C23        -34.3090   -10.0450   -15.7500 ca         1 YX5      -0.196000
     17 C24        -35.0460   -10.3720   -16.9080 ca         1 YX5      -0.036000
     18 C25        -36.4350   -10.1350   -16.9050 ca         1 YX5       0.296000
     19 C26        -37.2490   -10.4430   -18.0520 cg         1 YX5       0.232000
     20 N08        -31.7700   -14.2290    -6.9150 nu         1 YX5      -0.895100
     21 N16        -33.1780    -8.4970   -10.7850 n          1 YX5      -0.423800
     22 N21        -34.3630    -9.1380   -13.4360 nh         1 YX5      -0.781300
     23 N27        -37.9010   -10.6980   -18.9900 n1         1 YX5      -0.436000
     24 N28        -37.0490    -9.6030   -15.8170 nb         1 YX5      -0.228000
     25 N29        -36.3380    -9.2910   -14.7080 nb         1 YX5      -0.410000
     26 O01        -33.5480    -7.8300    -8.6210 o          1 YX5      -0.593100
     27 O10        -30.2800   -15.8070    -8.1700 o          1 YX5      -0.533500
     28 O13        -32.1810   -16.6610    -6.7170 o          1 YX5      -0.533500
     29 S09        -31.6570   -15.6960    -7.6840 s6         1 YX5       1.214100
     30 H1         -30.7140    -8.8360    -9.8220 hc         1 YX5       0.065200
     31 H2         -31.0410    -8.2110    -8.1850 hc         1 YX5       0.065200
     32 H3         -32.7560    -9.7810    -6.7570 ha         1 YX5       0.117500
     33 H4         -32.8950   -12.0930    -5.8920 ha         1 YX5       0.133000
     34 H5         -32.3870   -14.8170    -9.7440 h1         1 YX5       0.104700
     35 H6         -32.7220   -16.5620    -9.5880 h1         1 YX5       0.104700
     36 H7         -34.8850   -15.2540    -9.5920 hc         1 YX5       0.048367
     37 H8         -34.6550   -16.0400    -8.0180 hc         1 YX5       0.048367
     38 H9         -34.3320   -14.3000    -8.2040 hc         1 YX5       0.048367
     39 H10        -30.3490   -13.4450    -9.1100 ha         1 YX5       0.133000
     40 H11        -30.2120   -11.1510    -9.9750 ha         1 YX5       0.117500
     41 H12        -33.2410   -10.5690   -11.2140 h1         1 YX5       0.066700
     42 H13        -31.6480    -9.8500   -11.4540 h1         1 YX5       0.066700
     43 H14        -32.7710   -10.5670   -13.5560 h1         1 YX5       0.067700
     44 H15        -32.2540    -8.8720   -13.5580 h1         1 YX5       0.067700
     45 H16        -34.6480    -6.9520   -10.7900 h1         1 YX5       0.066700
     46 H17        -35.2930    -8.5970   -10.8030 h1         1 YX5       0.066700
     47 H18        -34.0780    -7.0480   -13.1420 h1         1 YX5       0.067700
     48 H19        -35.7540    -7.5670   -12.9360 h1         1 YX5       0.067700
     49 H20        -33.2370   -10.2040   -15.7260 ha         1 YX5       0.131000
     50 H21        -34.5560   -10.7940   -17.7830 ha         1 YX5       0.139000
     51 H22        -32.4330   -14.3720    -6.1650 hn         1 YX5       0.497000
@<TRIPOS>BOND
     1     1     2 1   
     2     1    21 1   
     3     1    26 2   
     4     2     3 1   
     5     2    30 1   
     6     2    31 1   
     7     3     4 ar  
     8     3    10 ar  
     9     4     5 ar  
    10     4    32 1   
    11     5     6 ar  
    12     5    33 1   
    13     6     9 ar  
    14     6    20 1   
    15     7     8 1   
    16     7    29 1   
    17     7    34 1   
    18     7    35 1   
    19     8    36 1   
    20     8    37 1   
    21     8    38 1   
    22     9    10 ar  
    23     9    39 1   
    24    10    40 1   
    25    11    12 1   
    26    11    21 1   
    27    11    41 1   
    28    11    42 1   
    29    12    22 1   
    30    12    43 1   
    31    12    44 1   
    32    13    14 1   
    33    13    21 1   
    34    13    45 1   
    35    13    46 1   
    36    14    22 1   
    37    14    47 1   
    38    14    48 1   
    39    15    16 ar  
    40    15    22 1   
    41    15    25 ar  
    42    16    17 ar  
    43    16    49 1   
    44    17    18 ar  
    45    17    50 1   
    46    18    19 1   
    47    18    24 ar  
    48    19    23 3   
    49    20    29 1   
    50    20    51 1   
    51    24    25 ar  
    52    27    29 2   
    53    28    29 2   
@<TRIPOS>SUBSTRUCTURE
     1 YX5         1 TEMP              0 ****  ****    0 ROOT
