@<TRIPOS>MOLECULE
YX5
   51    53     1     0     0
SMALL
abcg2


@<TRIPOS>ATOM
      1 C02        -33.4250   -10.2870   -10.6010 c          1 YX5       0.605100
      2 C03        -31.9600   -10.2680   -10.1690 c3         1 YX5      -0.099100
      3 C04        -31.6740   -11.3030    -9.1130 ca         1 YX5      -0.088300
      4 C05        -31.4950   -10.9650    -7.7760 ca         1 YX5      -0.066000
      5 C06        -31.2320   -11.9360    -6.8180 ca         1 YX5      -0.144500
      6 C07        -31.1270   -13.2760    -7.1900 ca         1 YX5       0.283000
      7 C11        -33.2040   -15.5860    -6.1530 c3         1 YX5      -0.345400
      8 C12        -33.7580   -14.8390    -4.9530 c3         1 YX5      -0.064100
      9 C14        -31.3000   -13.6310    -8.5310 ca         1 YX5      -0.144500
     10 C15        -31.5760   -12.6490    -9.4700 ca         1 YX5      -0.066000
     11 C17        -32.7880    -9.8030   -12.9920 c6         1 YX5       0.083000
     12 C18        -33.1880    -8.5510   -13.7680 c6         1 YX5       0.205800
     13 C19        -35.1090   -10.1510   -12.3620 c6         1 YX5       0.083000
     14 C20        -35.5100    -8.9030   -13.1360 c6         1 YX5       0.205800
     15 C22        -34.9690    -8.3750   -15.4840 ca         1 YX5       0.588900
     16 C23        -34.0780    -7.9720   -16.5140 ca         1 YX5      -0.196000
     17 C24        -34.5890    -7.7600   -17.7590 ca         1 YX5      -0.036000
     18 C25        -35.9680    -7.9480   -17.9430 ca         1 YX5       0.296000
     19 C26        -36.5860    -7.7530   -19.2140 cg         1 YX5       0.232000
     20 N08        -30.8060   -14.2290    -6.1900 nu         1 YX5      -0.895100
     21 N16        -33.7250   -10.0650   -11.9060 n          1 YX5      -0.423800
     22 N21        -34.5680    -8.6470   -14.2240 nh         1 YX5      -0.781300
     23 N27        -37.0600    -7.5820   -20.2520 n1         1 YX5      -0.436000
     24 N28        -36.7780    -8.3020   -16.9430 nb         1 YX5      -0.228000
     25 N29        -36.2990    -8.5080   -15.7420 nb         1 YX5      -0.410000
     26 O01        -34.3050   -10.4830    -9.7600 o          1 YX5      -0.593100
     27 O10        -31.0340   -16.4680    -7.3190 o          1 YX5      -0.533500
     28 O13        -31.0000   -16.2720    -4.8390 o          1 YX5      -0.533500
     29 S09        -31.4260   -15.7600    -6.1220 s6         1 YX5       1.214100
     30 H1         -31.2880   -10.4270   -11.0080 hc         1 YX5       0.065200
     31 H2         -31.7560    -9.2650    -9.7830 hc         1 YX5       0.065200
     32 H3         -31.5660    -9.9290    -7.4680 ha         1 YX5       0.117500
     33 H4         -31.1020   -11.6580    -5.7790 ha         1 YX5       0.133000
     34 H5         -33.4270   -15.0820    -7.0950 h1         1 YX5       0.104700
     35 H6         -33.5740   -16.6100    -6.2200 h1         1 YX5       0.104700
     36 H7         -34.8390   -14.7580    -5.0550 hc         1 YX5       0.048367
     37 H8         -33.5360   -15.3670    -4.0280 hc         1 YX5       0.048367
     38 H9         -33.3500   -13.8290    -4.8900 hc         1 YX5       0.048367
     39 H10        -31.2100   -14.6610    -8.8390 ha         1 YX5       0.133000
     40 H11        -31.7100   -12.9400   -10.5060 ha         1 YX5       0.117500
     41 H12        -32.7820   -10.6620   -13.6700 h1         1 YX5       0.066700
     42 H13        -31.7830    -9.6580   -12.6140 h1         1 YX5       0.066700
     43 H14        -32.5060    -8.4490   -14.6050 h1         1 YX5       0.067700
     44 H15        -33.0810    -7.6680   -13.1300 h1         1 YX5       0.067700
     45 H16        -35.7530   -10.2710   -11.4980 h1         1 YX5       0.066700
     46 H17        -35.2120   -11.0310   -13.0060 h1         1 YX5       0.066700
     47 H18        -35.5110    -8.0380   -12.4650 h1         1 YX5       0.067700
     48 H19        -36.5060    -9.0270   -13.5430 h1         1 YX5       0.067700
     49 H20        -33.0250    -7.8220   -16.3330 ha         1 YX5       0.131000
     50 H21        -33.9580    -7.4520   -18.5810 ha         1 YX5       0.139000
     51 H22        -30.6930   -13.8490    -5.2580 hn         1 YX5       0.497000
@<TRIPOS>BOND
     1     1     2 1   
     2     1    21 1   
     3     1    26 2   
     4     2     3 1   
     5     2    30 1   
     6     2    31 1   
     7     3     4 ar  
     8     3    10 ar  
     9     4     5 ar  
    10     4    32 1   
    11     5     6 ar  
    12     5    33 1   
    13     6     9 ar  
    14     6    20 1   
    15     7     8 1   
    16     7    29 1   
    17     7    34 1   
    18     7    35 1   
    19     8    36 1   
    20     8    37 1   
    21     8    38 1   
    22     9    10 ar  
    23     9    39 1   
    24    10    40 1   
    25    11    12 1   
    26    11    21 1   
    27    11    41 1   
    28    11    42 1   
    29    12    22 1   
    30    12    43 1   
    31    12    44 1   
    32    13    14 1   
    33    13    21 1   
    34    13    45 1   
    35    13    46 1   
    36    14    22 1   
    37    14    47 1   
    38    14    48 1   
    39    15    16 ar  
    40    15    22 1   
    41    15    25 ar  
    42    16    17 ar  
    43    16    49 1   
    44    17    18 ar  
    45    17    50 1   
    46    18    19 1   
    47    18    24 ar  
    48    19    23 3   
    49    20    29 1   
    50    20    51 1   
    51    24    25 ar  
    52    27    29 2   
    53    28    29 2   
@<TRIPOS>SUBSTRUCTURE
     1 YX5         1 TEMP              0 ****  ****    0 ROOT
