@<TRIPOS>MOLECULE
YX9
   59    61     1     0     0
SMALL
abcg2


@<TRIPOS>ATOM
      1 C10        122.3810   135.7170    96.3880 c3         1 YX9       0.137300
      2 C13        123.2030   137.4090    94.7150 c3         1 YX9      -0.086400
      3 C17        125.1000   138.1830    92.2560 c5         1 YX9      -0.170400
      4 C20        121.7180   136.7540    91.7250 c3         1 YX9       0.108000
      5 C21        121.0010   137.6970    90.7620 c3         1 YX9      -0.102400
      6 C22        119.5850   137.2420    90.4270 c3         1 YX9      -0.073400
      7 C24        118.1120   135.5270    89.2380 c3         1 YX9      -0.071400
      8 C26        115.8000   134.8900    89.9380 cc         1 YX9       0.396800
      9 C01        121.0720   133.6370   100.3080 ca         1 YX9      -0.116500
     10 C02        122.1720   132.8210   100.5290 ca         1 YX9      -0.090000
     11 C03        123.0400   132.5370    99.4840 ca         1 YX9      -0.116500
     12 C04        122.8080   133.0640    98.2220 ca         1 YX9      -0.076500
     13 C05        121.7020   133.8790    97.9970 ca         1 YX9      -0.170300
     14 C06        120.8380   134.1700    99.0470 ca         1 YX9      -0.076500
     15 C07        121.5000   134.4840    96.6350 c3         1 YX9       0.203300
     16 O11        122.1340   136.6730    97.3860 oh         1 YX9      -0.645000
     17 C12        122.1460   136.3560    95.0250 c3         1 YX9      -0.071400
     18 C14        122.9970   138.1800    93.4110 c5         1 YX9       0.112700
     19 N15        122.9480   137.3220    92.2330 n          1 YX9      -0.420800
     20 C16        124.1100   137.2790    91.5490 c          1 YX9       0.560000
     21 C18        124.2040   139.0770    93.1060 c5         1 YX9      -0.092400
     22 O19        124.3140   136.6260    90.5380 o          1 YX9      -0.551000
     23 C23        119.5170   135.9040    89.6970 c3         1 YX9      -0.078400
     24 C25        117.1560   135.2700    90.4060 c3         1 YX9      -0.108700
     25 N27        115.1750   133.7400    90.1930 na         1 YX9      -0.216700
     26 N28        113.9900   133.7450    89.6070 nc         1 YX9      -0.205800
     27 N29        113.8940   134.8650    89.0080 nd         1 YX9      -0.043000
     28 N30        114.9910   135.6030    89.1880 nd         1 YX9      -0.390000
     29 F08        120.1870   134.8120    96.4610 f          1 YX9      -0.113000
     30 F09        121.7760   133.5480    95.6760 f          1 YX9      -0.113000
     31 H1         123.4200   135.3590    96.4240 h1         1 YX9       0.047700
     32 H2         124.1890   136.9300    94.6940 hc         1 YX9       0.050700
     33 H3         123.2360   138.1470    95.5200 hc         1 YX9       0.050700
     34 H4         125.7760   137.5750    92.8640 hc         1 YX9       0.075700
     35 H5         125.7120   138.7230    91.5350 hc         1 YX9       0.075700
     36 H6         121.9460   135.8020    91.2440 h1         1 YX9       0.055700
     37 H7         121.0620   136.5290    92.5670 h1         1 YX9       0.055700
     38 H8         121.5880   137.7960    89.8450 hc         1 YX9       0.049700
     39 H9         120.9540   138.6910    91.2140 hc         1 YX9       0.049700
     40 H10        119.1070   138.0060    89.8070 hc         1 YX9       0.040700
     41 H11        119.0040   137.1990    91.3540 hc         1 YX9       0.040700
     42 H12        118.1620   134.6280    88.6190 hc         1 YX9       0.056200
     43 H13        117.7050   136.3210    88.6060 hc         1 YX9       0.056200
     44 H14        120.3920   133.8640   101.1180 ha         1 YX9       0.119500
     45 H15        122.3530   132.4080   101.5130 ha         1 YX9       0.118000
     46 H16        123.9010   131.9020    99.6500 ha         1 YX9       0.119500
     47 H17        123.4980   132.8370    97.4200 ha         1 YX9       0.128000
     48 H18        119.9780   134.8080    98.8940 ha         1 YX9       0.128000
     49 H19        122.6410   136.4520    98.1740 ho         1 YX9       0.452000
     50 H20        121.1470   136.7990    94.9910 hc         1 YX9       0.064700
     51 H21        122.1770   135.5750    94.2630 hc         1 YX9       0.064700
     52 H22        122.0710   138.7600    93.4730 h1         1 YX9       0.062700
     53 H23        124.6860   139.4440    94.0120 hc         1 YX9       0.057700
     54 H24        123.8850   139.9430    92.5240 hc         1 YX9       0.057700
     55 H25        119.9130   135.1020    90.3280 hc         1 YX9       0.046200
     56 H26        120.1670   135.9460    88.8180 hc         1 YX9       0.046200
     57 H27        117.0610   136.1640    91.0260 hc         1 YX9       0.063700
     58 H28        117.5540   134.4810    91.0470 hc         1 YX9       0.063700
     59 H29        115.4850   132.9450    90.7350 hn         1 YX9       0.385000
@<TRIPOS>BOND
     1     1    15 1   
     2     1    16 1   
     3     1    17 1   
     4     1    31 1   
     5     2    17 1   
     6     2    18 1   
     7     2    32 1   
     8     2    33 1   
     9     3    20 1   
    10     3    21 1   
    11     3    34 1   
    12     3    35 1   
    13     4     5 1   
    14     4    19 1   
    15     4    36 1   
    16     4    37 1   
    17     5     6 1   
    18     5    38 1   
    19     5    39 1   
    20     6    23 1   
    21     6    40 1   
    22     6    41 1   
    23     7    23 1   
    24     7    24 1   
    25     7    42 1   
    26     7    43 1   
    27     8    24 1   
    28     8    25 1   
    29     8    28 2   
    30     9    10 ar  
    31     9    14 ar  
    32     9    44 1   
    33    10    11 ar  
    34    10    45 1   
    35    11    12 ar  
    36    11    46 1   
    37    12    13 ar  
    38    12    47 1   
    39    13    14 ar  
    40    13    15 1   
    41    14    48 1   
    42    15    29 1   
    43    15    30 1   
    44    16    49 1   
    45    17    50 1   
    46    17    51 1   
    47    18    19 1   
    48    18    21 1   
    49    18    52 1   
    50    19    20 1   
    51    20    22 2   
    52    21    53 1   
    53    21    54 1   
    54    23    55 1   
    55    23    56 1   
    56    24    57 1   
    57    24    58 1   
    58    25    26 1   
    59    25    59 1   
    60    26    27 2   
    61    27    28 1   
@<TRIPOS>SUBSTRUCTURE
     1 YX9         1 TEMP              0 ****  ****    0 ROOT
