@<TRIPOS>MOLECULE
YX9
   59    61     1     0     0
SMALL
No Charge or Current Charge


@<TRIPOS>ATOM
      1 C10        122.5330   135.6900    96.5590 c3         1 YX9       0.137300
      2 C13        123.4350   137.2420    94.6720 c3         1 YX9      -0.086400
      3 C17        125.1500   137.8880    92.0430 c5         1 YX9      -0.170400
      4 C20        121.6330   136.6690    91.7320 c3         1 YX9       0.108000
      5 C21        120.7290   137.7710    91.1370 c3         1 YX9      -0.102400
      6 C22        119.3190   137.2810    90.7300 c3         1 YX9      -0.073400
      7 C24        117.9060   135.8730    89.0600 c3         1 YX9      -0.071400
      8 C26        115.6990   134.6940    89.5280 cc         1 YX9       0.396800
      9 C01        121.2750   133.8560   100.7570 ca         1 YX9      -0.116500
     10 C02        122.3450   132.9590   100.9000 ca         1 YX9      -0.090000
     11 C03        123.1160   132.6080    99.7810 ca         1 YX9      -0.116500
     12 C04        122.8170   133.1530    98.5200 ca         1 YX9      -0.076500
     13 C05        121.7410   134.0540    98.3630 ca         1 YX9      -0.170300
     14 C06        120.9730   134.4020    99.4980 ca         1 YX9      -0.076500
     15 C07        121.4400   134.6470    96.9770 c3         1 YX9       0.203300
     16 O11        122.6590   136.7100    97.5680 oh         1 YX9      -0.645000
     17 C12        122.2680   136.3610    95.1830 c3         1 YX9      -0.071400
     18 C14        123.1420   138.0400    93.3710 c5         1 YX9       0.112700
     19 N15        122.9480   137.1800    92.1770 n          1 YX9      -0.420800
     20 C16        124.0450   137.1380    91.3080 c          1 YX9       0.560000
     21 C18        124.3500   138.9120    92.8910 c5         1 YX9      -0.092400
     22 O19        123.9990   136.7940    90.1350 o          1 YX9      -0.551000
     23 C23        119.3170   136.2470    89.5760 c3         1 YX9      -0.078400
     24 C25        117.0220   135.1330    90.0940 c3         1 YX9      -0.108700
     25 N27        115.4560   133.5290    88.8620 na         1 YX9      -0.216700
     26 N28        114.1540   133.4620    88.4870 nc         1 YX9      -0.205800
     27 N29        113.6310   134.5750    88.9260 nd         1 YX9      -0.043000
     28 N30        114.5620   135.3560    89.5720 nd         1 YX9      -0.390000
     29 F08        120.2190   135.2370    96.9380 f          1 YX9      -0.113000
     30 F09        121.3990   133.6600    96.0490 f          1 YX9      -0.113000
     31 H1         123.4830   135.1440    96.4800 h1         1 YX9       0.047700
     32 H2         124.3150   136.6020    94.5370 hc         1 YX9       0.050700
     33 H3         123.7000   137.9590    95.4580 hc         1 YX9       0.050700
     34 H4         125.6540   137.1860    92.7160 hc         1 YX9       0.075700
     35 H5         125.8790   138.3170    91.3480 hc         1 YX9       0.075700
     36 H6         121.7850   135.8720    90.9930 h1         1 YX9       0.055700
     37 H7         121.1150   136.2200    92.5870 h1         1 YX9       0.055700
     38 H8         121.2260   138.2140    90.2650 hc         1 YX9       0.049700
     39 H9         120.6130   138.5740    91.8740 hc         1 YX9       0.049700
     40 H10        118.7250   138.1510    90.4270 hc         1 YX9       0.040700
     41 H11        118.8270   136.8550    91.6120 hc         1 YX9       0.040700
     42 H12        118.0220   135.2350    88.1750 hc         1 YX9       0.056200
     43 H13        117.3900   136.7810    88.7230 hc         1 YX9       0.056200
     44 H14        120.6770   134.1300   101.6240 ha         1 YX9       0.119500
     45 H15        122.5780   132.5380   101.8760 ha         1 YX9       0.118000
     46 H16        123.9470   131.9140    99.8890 ha         1 YX9       0.119500
     47 H17        123.4250   132.8700    97.6620 ha         1 YX9       0.128000
     48 H18        120.1400   135.0980    99.4140 ha         1 YX9       0.128000
     49 H19        122.6730   136.2470    98.4340 ho         1 YX9       0.452000
     50 H20        121.3540   136.9650    95.2390 hc         1 YX9       0.064700
     51 H21        122.0850   135.5710    94.4450 hc         1 YX9       0.064700
     52 H22        122.2650   138.6760    93.5530 h1         1 YX9       0.062700
     53 H23        124.9320   139.3380    93.7170 hc         1 YX9       0.057700
     54 H24        124.0030   139.7470    92.2700 hc         1 YX9       0.057700
     55 H25        119.8310   135.3320    89.8960 hc         1 YX9       0.046200
     56 H26        119.8940   136.6540    88.7370 hc         1 YX9       0.046200
     57 H27        116.8390   135.7850    90.9560 hc         1 YX9       0.063700
     58 H28        117.5620   134.2580    90.4750 hc         1 YX9       0.063700
     59 H29        116.1220   132.7950    88.6560 hn         1 YX9       0.385000
@<TRIPOS>BOND
     1     1    15 1   
     2     1    16 1   
     3     1    17 1   
     4     1    31 1   
     5     2    17 1   
     6     2    18 1   
     7     2    32 1   
     8     2    33 1   
     9     3    20 1   
    10     3    21 1   
    11     3    34 1   
    12     3    35 1   
    13     4     5 1   
    14     4    19 1   
    15     4    36 1   
    16     4    37 1   
    17     5     6 1   
    18     5    38 1   
    19     5    39 1   
    20     6    23 1   
    21     6    40 1   
    22     6    41 1   
    23     7    23 1   
    24     7    24 1   
    25     7    42 1   
    26     7    43 1   
    27     8    24 1   
    28     8    25 1   
    29     8    28 2   
    30     9    10 ar  
    31     9    14 ar  
    32     9    44 1   
    33    10    11 ar  
    34    10    45 1   
    35    11    12 ar  
    36    11    46 1   
    37    12    13 ar  
    38    12    47 1   
    39    13    14 ar  
    40    13    15 1   
    41    14    48 1   
    42    15    29 1   
    43    15    30 1   
    44    16    49 1   
    45    17    50 1   
    46    17    51 1   
    47    18    19 1   
    48    18    21 1   
    49    18    52 1   
    50    19    20 1   
    51    20    22 2   
    52    21    53 1   
    53    21    54 1   
    54    23    55 1   
    55    23    56 1   
    56    24    57 1   
    57    24    58 1   
    58    25    26 1   
    59    25    59 1   
    60    26    27 2   
    61    27    28 1   
@<TRIPOS>SUBSTRUCTURE
     1 YX9         1 TEMP              0 ****  ****    0 ROOT
