@<TRIPOS>MOLECULE
YXA
   31    33     1     0     0
SMALL
abcg2


@<TRIPOS>ATOM
      1 C10         32.1940    50.2250   -29.2130 c3         1 YXA       0.068300
      2 C11         30.9700    50.2780   -30.0530 cc         1 YXA       0.001300
      3 C12         29.8590    49.5130   -30.0990 cd         1 YXA      -0.101000
      4 C13         29.0210    50.0580   -31.1240 cd         1 YXA      -0.198600
      5 C14         29.6950    51.1350   -31.6170 cc         1 YXA       0.159300
      6 C16         29.4040    52.1360   -32.6740 c3         1 YXA      -0.106400
      7 C17         27.6800    49.5260   -31.5460 c          1 YXA       0.735600
      8 C2          31.7910    51.6710   -27.2130 cc         1 YXA      -0.132100
      9 C3          32.1110    52.9220   -26.7770 cd         1 YXA      -0.261200
     10 C4          33.6110    54.7230   -27.9100 ca         1 YXA      -0.069000
     11 C5          34.3820    54.9630   -29.0300 ca         1 YXA      -0.127000
     12 C6          34.4990    53.9750   -30.0190 ca         1 YXA      -0.009900
     13 C7          33.8680    52.7520   -29.9330 ca         1 YXA      -0.075000
     14 C8          33.1010    52.5260   -28.7920 ca         1 YXA      -0.039200
     15 C9          32.9570    53.4960   -27.7740 ca         1 YXA      -0.088800
     16 N1          32.3910    51.4200   -28.4190 na         1 YXA      -0.074700
     17 O15         30.8790    51.2670   -30.9740 os         1 YXA      -0.270000
     18 O18         27.1100    50.1120   -32.4890 o          1 YXA      -0.725000
     19 O19         27.2620    48.5370   -30.9110 o          1 YXA      -0.725000
     20 H1          32.1130    49.3690   -28.5430 h1         1 YXA       0.059700
     21 H2          33.0900    50.0640   -29.8160 h1         1 YXA       0.059700
     22 H3          29.6520    48.6570   -29.4760 ha         1 YXA       0.138000
     23 H4          30.0350    53.0160   -32.5610 hc         1 YXA       0.047033
     24 H5          29.5770    51.7290   -33.6730 hc         1 YXA       0.047033
     25 H6          28.3630    52.4450   -32.6320 hc         1 YXA       0.047033
     26 H7          31.1760    50.9150   -26.7500 h4         1 YXA       0.216000
     27 H8          31.7920    53.3750   -25.8520 ha         1 YXA       0.199000
     28 H9          33.5210    55.4850   -27.1460 ha         1 YXA       0.108000
     29 H10         34.8920    55.9100   -29.1400 ha         1 YXA       0.115000
     30 H11         33.9690    52.0080   -30.7120 ha         1 YXA       0.136000
     31 BR          35.5690    54.3400   -31.5390 br         1 YXA      -0.133100
@<TRIPOS>BOND
     1     1     2 1   
     2     1    16 1   
     3     1    20 1   
     4     1    21 1   
     5     2     3 2   
     6     2    17 1   
     7     3     4 1   
     8     3    22 1   
     9     4     5 2   
    10     4     7 1   
    11     5     6 1   
    12     5    17 1   
    13     6    23 1   
    14     6    24 1   
    15     6    25 1   
    16     7    18 1   
    17     7    19 1   
    18     8     9 2   
    19     8    16 1   
    20     8    26 1   
    21     9    15 1   
    22     9    27 1   
    23    10    11 ar  
    24    10    15 ar  
    25    10    28 1   
    26    11    12 ar  
    27    11    29 1   
    28    12    13 ar  
    29    12    31 1   
    30    13    14 ar  
    31    13    30 1   
    32    14    15 ar  
    33    14    16 1   
@<TRIPOS>SUBSTRUCTURE
     1 YXA         1 TEMP              0 ****  ****    0 ROOT
