@<TRIPOS>MOLECULE
YXA
   31    33     1     0     0
SMALL
No Charge or Current Charge


@<TRIPOS>ATOM
      1 C10         32.3990    50.1440   -29.4010 c3         1 YXA       0.068300
      2 C11         31.1720    50.3850   -30.2390 cc         1 YXA       0.001300
      3 C12         29.8710    50.6020   -29.8830 cd         1 YXA      -0.101000
      4 C13         29.1280    50.7900   -31.0730 cd         1 YXA      -0.198600
      5 C14         30.0260    50.6770   -32.1080 cc         1 YXA       0.159300
      6 C16         29.8740    50.7770   -33.6020 c3         1 YXA      -0.106400
      7 C17         27.6710    51.0590   -31.1990 c          1 YXA       0.735600
      8 C2          32.4610    50.9740   -26.9570 cc         1 YXA      -0.132100
      9 C3          32.7320    52.2270   -26.4230 cd         1 YXA      -0.261200
     10 C4          33.3480    54.5350   -27.4240 ca         1 YXA      -0.069000
     11 C5          33.5770    55.1890   -28.6540 ca         1 YXA      -0.127000
     12 C6          33.4780    54.4740   -29.8720 ca         1 YXA      -0.009900
     13 C7          33.1510    53.1000   -29.8780 ca         1 YXA      -0.075000
     14 C8          32.9280    52.4760   -28.6400 ca         1 YXA      -0.039200
     15 C9          33.0250    53.1740   -27.4680 ca         1 YXA      -0.088800
     16 N1          32.5910    51.1570   -28.3490 na         1 YXA      -0.074700
     17 O15         31.2860    50.4250   -31.6070 os         1 YXA      -0.270000
     18 O18         27.1750    51.2000   -32.3070 o          1 YXA      -0.725000
     19 O19         27.0130    51.1290   -30.1710 o          1 YXA      -0.725000
     20 H1          32.3190    49.1570   -28.9290 h1         1 YXA       0.059700
     21 H2          33.2870    50.1330   -30.0440 h1         1 YXA       0.059700
     22 H3          29.4850    50.6300   -28.8680 ha         1 YXA       0.138000
     23 H4          30.8350    50.6290   -34.1080 hc         1 YXA       0.047033
     24 H5          29.1770    50.0170   -33.9740 hc         1 YXA       0.047033
     25 H6          29.4920    51.7640   -33.8880 hc         1 YXA       0.047033
     26 H7          32.2010    50.0260   -26.4960 h4         1 YXA       0.216000
     27 H8          32.7210    52.4560   -25.3590 ha         1 YXA       0.199000
     28 H9          33.4180    55.0690   -26.4790 ha         1 YXA       0.108000
     29 H10         33.8300    56.2460   -28.6650 ha         1 YXA       0.115000
     30 H11         33.0740    52.5510   -30.8130 ha         1 YXA       0.136000
     31 Br          33.7890    55.3770   -31.5280 br         1 YXA      -0.133100
@<TRIPOS>BOND
     1     1     2 1   
     2     1    16 1   
     3     1    20 1   
     4     1    21 1   
     5     2     3 2   
     6     2    17 1   
     7     3     4 1   
     8     3    22 1   
     9     4     5 2   
    10     4     7 1   
    11     5     6 1   
    12     5    17 1   
    13     6    23 1   
    14     6    24 1   
    15     6    25 1   
    16     7    18 1   
    17     7    19 1   
    18     8     9 2   
    19     8    16 1   
    20     8    26 1   
    21     9    15 1   
    22     9    27 1   
    23    10    11 ar  
    24    10    15 ar  
    25    10    28 1   
    26    11    12 ar  
    27    11    29 1   
    28    12    13 ar  
    29    12    31 1   
    30    13    14 ar  
    31    13    30 1   
    32    14    15 ar  
    33    14    16 1   
@<TRIPOS>SUBSTRUCTURE
     1 YXA         1 TEMP              0 ****  ****    0 ROOT
