@<TRIPOS>MOLECULE
YXB
   27    28     1     0     0
SMALL
abcg2


@<TRIPOS>ATOM
      1 C13         27.6510   -40.6220     8.0710 ca         1 YXB      -0.091800
      2 C01         30.0890   -41.9170     4.7320 c3         1 YXB      -0.089100
      3 C02         28.8960   -41.0840     4.2900 c3         1 YXB       0.164800
      4 N03         27.6310   -41.7600     4.5280 n7         1 YXB      -0.869400
      5 C04         27.2680   -41.9220     5.9200 c3         1 YXB       0.206100
      6 C05         27.1620   -40.6600     6.7550 ca         1 YXB      -0.063300
      7 C06         26.5660   -39.5130     6.2610 ca         1 YXB      -0.145000
      8 C07         26.4430   -38.3460     7.0300 ca         1 YXB      -0.089000
      9 C08         26.9180   -38.2870     8.3250 ca         1 YXB      -0.130000
     10 C09         27.5200   -39.4380     8.8320 ca         1 YXB      -0.046200
     11 N10         28.0810   -39.6710    10.0540 na         1 YXB      -0.226700
     12 C11         28.5540   -40.9520    10.0990 cc         1 YXB      -0.164100
     13 C12         28.3130   -41.5750     8.9100 cd         1 YXB      -0.241200
     14 H1          31.0160   -41.4220     4.4420 hc         1 YXB       0.035700
     15 H2          30.1200   -42.0540     5.8140 hc         1 YXB       0.035700
     16 H3          30.0700   -42.9030     4.2660 hc         1 YXB       0.035700
     17 H4          28.9540   -40.0950     4.7670 h1         1 YXB       0.029200
     18 H5          28.9680   -40.9080     3.2150 h1         1 YXB       0.029200
     19 H6          26.8920   -41.2810     4.0300 hn         1 YXB       0.411000
     20 H8          26.3120   -42.4550     5.9530 h1         1 YXB       0.059200
     21 H9          27.9880   -42.5930     6.3920 h1         1 YXB       0.059200
     22 H10         26.1760   -39.5040     5.2490 ha         1 YXB       0.104000
     23 H11         25.9710   -37.4740     6.5950 ha         1 YXB       0.110000
     24 H12         26.8300   -37.3880     8.9210 ha         1 YXB       0.112000
     25 H13         28.1400   -39.0060    10.8070 hn         1 YXB       0.348000
     26 H14         29.0310   -41.3280    10.9890 h4         1 YXB       0.211000
     27 H15         28.5810   -42.5910     8.6680 ha         1 YXB       0.205000
@<TRIPOS>BOND
     1     1     6 ar  
     2     1    10 ar  
     3     1    13 1   
     4     2     3 1   
     5     2    14 1   
     6     2    15 1   
     7     2    16 1   
     8     3     4 1   
     9     3    17 1   
    10     3    18 1   
    11     4     5 1   
    12     4    19 1   
    13     5     6 1   
    14     5    20 1   
    15     5    21 1   
    16     6     7 ar  
    17     7     8 ar  
    18     7    22 1   
    19     8     9 ar  
    20     8    23 1   
    21     9    10 ar  
    22     9    24 1   
    23    10    11 1   
    24    11    12 1   
    25    11    25 1   
    26    12    13 2   
    27    12    26 1   
    28    13    27 1   
@<TRIPOS>SUBSTRUCTURE
     1 YXB         1 TEMP              0 ****  ****    0 ROOT
