@<TRIPOS>MOLECULE
YXB
   27    28     1     0     0
SMALL
No Charge or Current Charge


@<TRIPOS>ATOM
      1 C13         27.6350   -40.4920     7.8840 ca         1 YXB      -0.091800
      2 C01         30.1050   -42.3330     4.9870 c3         1 YXB      -0.089100
      3 C02         29.2210   -41.1180     4.6460 c3         1 YXB       0.164800
      4 N03         27.7980   -41.4990     4.5060 n7         1 YXB      -0.869400
      5 C04         27.0730   -41.8270     5.7580 c3         1 YXB       0.206100
      6 C05         26.9360   -40.6080     6.6680 ca         1 YXB      -0.063300
      7 C06         26.0830   -39.5330     6.3180 ca         1 YXB      -0.145000
      8 C07         25.9580   -38.4010     7.1600 ca         1 YXB      -0.089000
      9 C08         26.6820   -38.3250     8.3690 ca         1 YXB      -0.130000
     10 C09         27.5170   -39.4000     8.6980 ca         1 YXB      -0.046200
     11 N10         28.3200   -39.5650     9.8160 na         1 YXB      -0.226700
     12 C11         28.9950   -40.8030     9.7520 cc         1 YXB      -0.164100
     13 C12         28.5660   -41.3660     8.5590 cd         1 YXB      -0.241200
     14 H1          31.1590   -42.0340     5.0120 hc         1 YXB       0.035700
     15 H2          29.8510   -42.7500     5.9680 hc         1 YXB       0.035700
     16 H3          29.9920   -43.1210     4.2330 hc         1 YXB       0.035700
     17 H4          29.3510   -40.3410     5.4120 h1         1 YXB       0.029200
     18 H5          29.5800   -40.6980     3.6960 h1         1 YXB       0.029200
     19 H6          27.3060   -40.7030     4.0840 hn         1 YXB       0.411000
     20 H8          26.0610   -42.1840     5.5180 h1         1 YXB       0.059200
     21 H9          27.5660   -42.6460     6.3000 h1         1 YXB       0.059200
     22 H10         25.5150   -39.5730     5.3920 ha         1 YXB       0.104000
     23 H11         25.2990   -37.5840     6.8740 ha         1 YXB       0.110000
     24 H12         26.5930   -37.4600     9.0220 ha         1 YXB       0.112000
     25 H13         28.4050   -38.8900    10.5700 hn         1 YXB       0.348000
     26 H14         29.6820   -41.1580    10.5170 h4         1 YXB       0.211000
     27 H15         28.8920   -42.3370     8.1950 ha         1 YXB       0.205000
@<TRIPOS>BOND
     1     1     6 ar  
     2     1    10 ar  
     3     1    13 1   
     4     2     3 1   
     5     2    14 1   
     6     2    15 1   
     7     2    16 1   
     8     3     4 1   
     9     3    17 1   
    10     3    18 1   
    11     4     5 1   
    12     4    19 1   
    13     5     6 1   
    14     5    20 1   
    15     5    21 1   
    16     6     7 ar  
    17     7     8 ar  
    18     7    22 1   
    19     8     9 ar  
    20     8    23 1   
    21     9    10 ar  
    22     9    24 1   
    23    10    11 1   
    24    11    12 1   
    25    11    25 1   
    26    12    13 2   
    27    12    26 1   
    28    13    27 1   
@<TRIPOS>SUBSTRUCTURE
     1 YXB         1 TEMP              0 ****  ****    0 ROOT
