@<TRIPOS>MOLECULE
YXD
   59    62     1     0     0
SMALL
abcg2


@<TRIPOS>ATOM
      1 N1           0.3810    -4.9280    18.2220 nb         1 YXD      -0.580000
      2 N3           7.9060    -5.7490    15.5320 na         1 YXD       0.135800
      3 C4           2.3090    -5.0390    16.8090 c3         1 YXD       0.272700
      4 C5          -0.3130    -4.5280    19.2620 ca         1 YXD       0.229900
      5 C6           0.2160    -3.6620    20.2450 ca         1 YXD       0.355000
      6 C7          -1.9000    -3.6390    21.5180 c5         1 YXD       0.223800
      7 C8          -2.3110    -2.7800    22.7050 c5         1 YXD      -0.090400
      8 C10         -0.9930    -1.5990    24.6110 c3         1 YXD       0.197000
      9 C13          0.0510    -2.5360    22.4340 c5         1 YXD       0.232800
     10 C15          6.2060    -0.6880    18.8880 ca         1 YXD      -0.116000
     11 C17          8.0600    -1.6280    17.7020 ca         1 YXD      -0.140000
     12 C20          7.0640    -4.9830    16.2350 cc         1 YXD      -0.109000
     13 C21          7.6200    -7.0150    14.9010 c3         1 YXD       0.069900
     14 C22          9.0660    -4.0880    16.1140 cd         1 YXD       0.264900
     15 F2           1.5190    -5.8160    16.0770 f          1 YXD      -0.115000
     16 F            3.4000    -5.7740    17.1180 f          1 YXD      -0.115000
     17 F1           2.7440    -4.0540    16.0070 f          1 YXD      -0.115000
     18 C3           1.6230    -4.5140    18.0370 ca         1 YXD       0.123300
     19 N2          -0.5050    -3.2810    21.3160 nh         1 YXD      -0.822400
     20 C9          -1.0220    -2.6710    23.5160 c5         1 YXD      -0.068700
     21 O1           0.3300    -1.6590    25.1290 oh         1 YXD      -0.663000
     22 C11         -1.2840    -0.1920    24.0920 c3         1 YXD      -0.122600
     23 C14          1.5380    -3.2320    20.0530 ca         1 YXD      -0.209000
     24 C2           2.2540    -3.6440    18.9400 ca         1 YXD       0.044000
     25 N            3.5670    -3.2190    18.7280 ns         1 YXD      -0.144000
     26 C1           4.0830    -1.9990    19.0250 c          1 YXD       0.519600
     27 O            3.4900    -1.0990    19.5850 o          1 YXD      -0.576100
     28 C            5.5070    -1.8410    18.5740 ca         1 YXD       0.296500
     29 N5           6.0260    -2.8400    17.8730 nb         1 YXD      -0.700000
     30 C18          7.2770    -2.7540    17.4280 ca         1 YXD       0.474500
     31 C16          7.5170    -0.5940    18.4390 ca         1 YXD      -0.077000
     32 C19          7.7780    -3.8710    16.6440 cd         1 YXD      -0.294500
     33 N4           9.1270    -5.2240    15.4490 nc         1 YXD      -0.526800
     34 H1          -1.3240    -4.9080    19.3410 h4         1 YXD       0.024100
     35 H2          -2.4970    -3.4260    20.6290 h1         1 YXD       0.050200
     36 H3          -2.0080    -4.7070    21.7400 h1         1 YXD       0.050200
     37 H4          -2.6370    -1.7980    22.3560 hc         1 YXD       0.058200
     38 H5          -3.1330    -3.2260    23.2640 hc         1 YXD       0.058200
     39 H6           1.0030    -2.9630    22.7530 h1         1 YXD       0.061700
     40 H7           0.2370    -1.4930    22.1540 h1         1 YXD       0.061700
     41 H8           5.7480     0.1050    19.4620 ha         1 YXD       0.147000
     42 H9           9.0760    -1.5600    17.3390 ha         1 YXD       0.127000
     43 H10          6.0350    -5.2620    16.3910 h4         1 YXD       0.172000
     44 H11          8.2450    -7.7980    15.3260 h1         1 YXD       0.060033
     45 H12          6.5760    -7.2650    15.0670 h1         1 YXD       0.060033
     46 H13          7.8040    -6.9520    13.8310 h1         1 YXD       0.060033
     47 H14          9.9430    -3.4630    16.1970 h4         1 YXD       0.037100
     48 H15         -0.8620    -3.6360    24.0120 hc         1 YXD       0.067700
     49 H16         -1.9400    -1.2440    26.5310 hc         1 YXD       0.043533
     50 H17         -3.0250    -1.9300    25.3290 hc         1 YXD       0.043533
     51 H18         -1.8120    -2.9550    26.1020 hc         1 YXD       0.043533
     52 H19          0.4060    -1.0160    25.8430 ho         1 YXD       0.445000
     53 H20         -1.1650     0.5320    24.9020 hc         1 YXD       0.043533
     54 H21         -0.6100     0.1030    23.2880 hc         1 YXD       0.043533
     55 H22         -2.3070    -0.0950    23.7280 hc         1 YXD       0.043533
     56 H23          2.0030    -2.5780    20.7730 ha         1 YXD       0.148000
     57 H24          4.2150    -3.8180    18.2310 hn         1 YXD       0.195000
     58 H25          8.1080     0.2850    18.6610 ha         1 YXD       0.124000
     59 C12         -2.0010    -1.9560    25.7040 c3         1 YXD      -0.122600
@<TRIPOS>BOND
     1     1     4 ar  
     2     1    18 ar  
     3     2    12 1   
     4     2    13 1   
     5     2    33 1   
     6     3    15 1   
     7     3    16 1   
     8     3    17 1   
     9     3    18 1   
    10     4     5 ar  
    11     4    34 1   
    12     5    19 1   
    13     5    23 ar  
    14     6     7 1   
    15     6    19 1   
    16     6    35 1   
    17     6    36 1   
    18     7    20 1   
    19     7    37 1   
    20     7    38 1   
    21     8    20 1   
    22     8    21 1   
    23     8    22 1   
    24     8    59 1   
    25     9    19 1   
    26     9    20 1   
    27     9    39 1   
    28     9    40 1   
    29    10    28 ar  
    30    10    31 ar  
    31    10    41 1   
    32    11    30 ar  
    33    11    31 ar  
    34    11    42 1   
    35    12    32 2   
    36    12    43 1   
    37    13    44 1   
    38    13    45 1   
    39    13    46 1   
    40    14    32 1   
    41    14    33 2   
    42    14    47 1   
    43    18    24 ar  
    44    20    48 1   
    45    21    52 1   
    46    22    53 1   
    47    22    54 1   
    48    22    55 1   
    49    23    24 ar  
    50    23    56 1   
    51    24    25 1   
    52    25    26 1   
    53    25    57 1   
    54    26    27 2   
    55    26    28 1   
    56    28    29 ar  
    57    29    30 ar  
    58    30    32 1   
    59    31    58 1   
    60    49    59 1   
    61    50    59 1   
    62    51    59 1   
@<TRIPOS>SUBSTRUCTURE
     1 YXD         1 TEMP              0 ****  ****    0 ROOT
