@<TRIPOS>MOLECULE
YXD
   59    62     1     0     0
SMALL
No Charge or Current Charge


@<TRIPOS>ATOM
      1 N1           0.7880    -5.6020    18.7700 nb         1 YXD      -0.580000
      2 N3           7.6830    -5.2970    14.6830 na         1 YXD       0.135800
      3 C4           2.8970    -5.7070    17.4690 c3         1 YXD       0.272700
      4 C5          -0.0130    -5.0510    19.7150 ca         1 YXD       0.229900
      5 C6           0.3460    -3.9270    20.5050 ca         1 YXD       0.355000
      6 C7          -1.9590    -3.7650    21.6260 c5         1 YXD       0.223800
      7 C8          -2.4960    -2.6500    22.5570 c5         1 YXD      -0.090400
      8 C10         -1.3990    -1.2960    24.5670 c3         1 YXD       0.197000
      9 C13         -0.1190    -2.3770    22.5150 c5         1 YXD       0.232800
     10 C15          6.7510    -1.1520    19.3900 ca         1 YXD      -0.116000
     11 C17          8.3500    -1.8200    17.7150 ca         1 YXD      -0.140000
     12 C20          6.9480    -4.7400    15.7230 cc         1 YXD      -0.109000
     13 C21          7.2740    -6.4260    13.8360 c3         1 YXD       0.069900
     14 C22          8.9170    -3.7440    15.4020 cd         1 YXD       0.264900
     15 F2           2.3100    -6.7740    16.8720 f          1 YXD      -0.115000
     16 F            4.0710    -6.1520    17.9740 f          1 YXD      -0.115000
     17 F1           3.2000    -4.8360    16.4790 f          1 YXD      -0.115000
     18 C3           2.0140    -5.0500    18.5590 ca         1 YXD       0.123300
     19 N2          -0.5310    -3.3760    21.4880 nh         1 YXD      -0.822400
     20 C9          -1.2950    -2.4620    23.5310 c5         1 YXD      -0.068700
     21 O1          -0.1840    -1.2740    25.3160 oh         1 YXD      -0.663000
     22 C11         -1.5610     0.1060    23.9270 c3         1 YXD      -0.122600
     23 C14          1.6150    -3.3620    20.2770 ca         1 YXD      -0.209000
     24 C2           2.4720    -3.9200    19.2990 ca         1 YXD       0.044000
     25 N            3.7670    -3.3880    19.0250 ns         1 YXD      -0.144000
     26 C1           4.5190    -2.3650    19.5910 c          1 YXD       0.519600
     27 O            4.1370    -1.6800    20.5390 o          1 YXD      -0.576100
     28 C            5.8840    -2.1660    18.9270 ca         1 YXD       0.296500
     29 N5           6.2390    -2.9830    17.8900 nb         1 YXD      -0.700000
     30 C18          7.4440    -2.8140    17.3000 ca         1 YXD       0.474500
     31 C16          8.0010    -0.9730    18.7780 ca         1 YXD      -0.077000
     32 C19          7.7480    -3.7310    16.1940 cd         1 YXD      -0.294500
     33 N4           8.9020    -4.6860    14.4780 nc         1 YXD      -0.526800
     34 H1          -0.9800    -5.5360    19.8440 h4         1 YXD       0.024100
     35 H2          -2.4910    -3.7740    20.6650 h1         1 YXD       0.050200
     36 H3          -2.0560    -4.7560    22.0920 h1         1 YXD       0.050200
     37 H4          -2.7120    -1.7390    21.9860 hc         1 YXD       0.058200
     38 H5          -3.4190    -2.9510    23.0630 hc         1 YXD       0.058200
     39 H6           0.8360    -2.6320    22.9950 h1         1 YXD       0.061700
     40 H7          -0.0270    -1.3780    22.0680 h1         1 YXD       0.061700
     41 H8           6.4540    -0.5100    20.2160 ha         1 YXD       0.147000
     42 H9           9.3100    -1.7040    17.2240 ha         1 YXD       0.127000
     43 H10          5.9690    -5.0940    16.0220 h4         1 YXD       0.172000
     44 H11          8.0010    -7.2410    13.9350 h1         1 YXD       0.060033
     45 H12          6.2850    -6.7840    14.1470 h1         1 YXD       0.060033
     46 H13          7.2300    -6.1020    12.7900 h1         1 YXD       0.060033
     47 H14          9.7800    -3.0950    15.4700 h4         1 YXD       0.037100
     48 H15         -1.1730    -3.3760    24.1260 hc         1 YXD       0.067700
     49 H16         -2.5620    -0.7650    26.3530 hc         1 YXD       0.043533
     50 H17         -3.5200    -1.5240    25.0720 hc         1 YXD       0.043533
     51 H18         -2.4350    -2.5120    26.0690 hc         1 YXD       0.043533
     52 H19         -0.2830    -0.5770    25.9990 ho         1 YXD       0.445000
     53 H20         -1.6140     0.8840    24.6990 hc         1 YXD       0.043533
     54 H21         -0.7190     0.3520    23.2710 hc         1 YXD       0.043533
     55 H22         -2.4830     0.1670    23.3380 hc         1 YXD       0.043533
     56 H23          1.9130    -2.4950    20.8500 ha         1 YXD       0.148000
     57 H24          4.2480    -3.8460    18.2600 hn         1 YXD       0.195000
     58 H25          8.6830    -0.1960    19.1200 ha         1 YXD       0.124000
     59 C12         -2.5460    -1.5390    25.5760 c3         1 YXD      -0.122600
@<TRIPOS>BOND
     1     1     4 ar  
     2     1    18 ar  
     3     2    12 1   
     4     2    13 1   
     5     2    33 1   
     6     3    15 1   
     7     3    16 1   
     8     3    17 1   
     9     3    18 1   
    10     4     5 ar  
    11     4    34 1   
    12     5    19 1   
    13     5    23 ar  
    14     6     7 1   
    15     6    19 1   
    16     6    35 1   
    17     6    36 1   
    18     7    20 1   
    19     7    37 1   
    20     7    38 1   
    21     8    20 1   
    22     8    21 1   
    23     8    22 1   
    24     8    59 1   
    25     9    19 1   
    26     9    20 1   
    27     9    39 1   
    28     9    40 1   
    29    10    28 ar  
    30    10    31 ar  
    31    10    41 1   
    32    11    30 ar  
    33    11    31 ar  
    34    11    42 1   
    35    12    32 2   
    36    12    43 1   
    37    13    44 1   
    38    13    45 1   
    39    13    46 1   
    40    14    32 1   
    41    14    33 2   
    42    14    47 1   
    43    18    24 ar  
    44    20    48 1   
    45    21    52 1   
    46    22    53 1   
    47    22    54 1   
    48    22    55 1   
    49    23    24 ar  
    50    23    56 1   
    51    24    25 1   
    52    25    26 1   
    53    25    57 1   
    54    26    27 2   
    55    26    28 1   
    56    28    29 ar  
    57    29    30 ar  
    58    30    32 1   
    59    31    58 1   
    60    49    59 1   
    61    50    59 1   
    62    51    59 1   
@<TRIPOS>SUBSTRUCTURE
     1 YXD         1 TEMP              0 ****  ****    0 ROOT
