@<TRIPOS>MOLECULE
YXF
   30    31     1     0     0
SMALL
No Charge or Current Charge


@<TRIPOS>ATOM
      1 C15         -6.2120    13.9630    30.2900 ca         1 YXF      -0.056500
      2 C12         -4.3640    15.5290    30.0450 ca         1 YXF       0.302000
      3 C14         -4.8460    14.2120    30.0650 ca         1 YXF      -0.178000
      4 C11         -5.2460    16.6000    30.2500 ca         1 YXF      -0.178000
      5 C10         -6.6130    16.3570    30.4760 ca         1 YXF      -0.056500
      6 C9          -7.1000    15.0350    30.4980 ca         1 YXF      -0.039200
      7 C8         -10.2020    14.4030    31.9150 cc         1 YXF      -0.232000
      8 C6          -8.8630    14.6080    32.0520 cd         1 YXF      -0.124300
      9 C3         -10.5000    14.4770    30.5380 cc         1 YXF       0.256300
     10 C2         -11.8960    14.3040    30.0030 c3         1 YXF      -0.102700
     11 C1         -12.7440    15.5870    30.1070 c3         1 YXF      -0.085100
     12 N4          -9.4500    14.7150    29.7750 nd         1 YXF      -0.514800
     13 N5          -8.4520    14.7910    30.7270 na         1 YXF       0.224000
     14 N13         -3.0360    15.7690    29.8250 nv         1 YXF      -1.077000
     15 H1          -6.5810    12.9390    30.3050 ha         1 YXF       0.126000
     16 H2          -4.1660    13.3790    29.9070 ha         1 YXF       0.116500
     17 H3          -4.8770    17.6220    30.2360 ha         1 YXF       0.116500
     18 H4          -7.2940    17.1910    30.6350 ha         1 YXF       0.126000
     19 H5         -10.9240    14.2180    32.7030 ha         1 YXF       0.141000
     20 H6          -7.4960    15.6130    33.3920 hc         1 YXF       0.050367
     21 H7          -8.5880    14.4700    34.1910 hc         1 YXF       0.050367
     22 H8          -7.2190    13.8670    33.2440 hc         1 YXF       0.050367
     23 H9         -11.8560    13.9870    28.9540 hc         1 YXF       0.052200
     24 H10        -12.4000    13.4980    30.5500 hc         1 YXF       0.052200
     25 H11        -13.7500    15.4160    29.7060 hc         1 YXF       0.033700
     26 H12        -12.8390    15.9050    31.1520 hc         1 YXF       0.033700
     27 H13        -12.2810    16.4030    29.5390 hc         1 YXF       0.033700
     28 H14         -2.4270    15.0080    29.5280 hn         1 YXF       0.454500
     29 H15         -2.7120    16.7200    29.6610 hn         1 YXF       0.454500
     30 C7          -7.9940    14.6420    33.2850 c3         1 YXF      -0.028800
@<TRIPOS>BOND
     1     1     3 ar  
     2     1     6 ar  
     3     1    15 1   
     4     2     3 ar  
     5     2     4 ar  
     6     2    14 1   
     7     3    16 1   
     8     4     5 ar  
     9     4    17 1   
    10     5     6 ar  
    11     5    18 1   
    12     6    13 1   
    13     7     8 2   
    14     7     9 1   
    15     7    19 1   
    16     8    13 1   
    17     8    30 1   
    18     9    10 1   
    19     9    12 2   
    20    10    11 1   
    21    10    23 1   
    22    10    24 1   
    23    11    25 1   
    24    11    26 1   
    25    11    27 1   
    26    12    13 1   
    27    14    28 1   
    28    14    29 1   
    29    20    30 1   
    30    21    30 1   
    31    22    30 1   
@<TRIPOS>SUBSTRUCTURE
     1 YXF         1 TEMP              0 ****  ****    0 ROOT
