@<TRIPOS>MOLECULE
YXF
   30    31     1     0     0
SMALL
abcg2


@<TRIPOS>ATOM
      1 C15         -6.0500    14.1020    30.8250 ca         1 YXF      -0.056500
      2 C12         -4.3550    15.6100    29.9780 ca         1 YXF       0.302000
      3 C14         -4.7260    14.3800    30.5360 ca         1 YXF      -0.178000
      4 C11         -5.3660    16.5460    29.7190 ca         1 YXF      -0.178000
      5 C10         -6.6860    16.2690    30.0240 ca         1 YXF      -0.056500
      6 C9          -7.0390    15.0470    30.5830 ca         1 YXF      -0.039200
      7 C8         -10.2680    14.3020    31.8900 cc         1 YXF      -0.232000
      8 C6          -8.9140    14.4270    32.0920 cd         1 YXF      -0.124300
      9 C3         -10.4740    14.5980    30.5280 cc         1 YXF       0.256300
     10 C2         -11.7660    14.6150    29.7780 c3         1 YXF      -0.102700
     11 C1         -12.7610    15.6290    30.3360 c3         1 YXF      -0.085100
     12 N4          -9.3300    14.8830    29.9370 nd         1 YXF      -0.514800
     13 N5          -8.3910    14.7710    30.8890 na         1 YXF       0.224000
     14 N13         -3.0360    15.9110    29.7380 nv         1 YXF      -1.077000
     15 H1          -6.3120    13.1340    31.2330 ha         1 YXF       0.126000
     16 H2          -3.9690    13.6300    30.7350 ha         1 YXF       0.116500
     17 H3          -5.1080    17.5030    29.2820 ha         1 YXF       0.116500
     18 H4          -7.4470    17.0130    29.8250 ha         1 YXF       0.126000
     19 H5         -11.0080    14.0390    32.6300 ha         1 YXF       0.141000
     20 H6          -7.3980    15.0840    33.4630 hc         1 YXF       0.050367
     21 H7          -8.7700    14.2560    34.1960 hc         1 YXF       0.050367
     22 H8          -7.5420    13.3360    33.3400 hc         1 YXF       0.050367
     23 H9         -11.5620    14.8330    28.7280 hc         1 YXF       0.052200
     24 H10        -12.2150    13.6180    29.8060 hc         1 YXF       0.052200
     25 H11        -13.6940    15.6050    29.7730 hc         1 YXF       0.033700
     26 H12        -12.9990    15.4190    31.3800 hc         1 YXF       0.033700
     27 H13        -12.3640    16.6430    30.2820 hc         1 YXF       0.033700
     28 H14         -2.4100    15.1270    29.6370 hn         1 YXF       0.454500
     29 H15         -2.8580    16.6310    29.0570 hn         1 YXF       0.454500
     30 C7          -8.1090    14.2680    33.3320 c3         1 YXF      -0.028800
@<TRIPOS>BOND
     1     1     3 ar  
     2     1     6 ar  
     3     1    15 1   
     4     2     3 ar  
     5     2     4 ar  
     6     2    14 1   
     7     3    16 1   
     8     4     5 ar  
     9     4    17 1   
    10     5     6 ar  
    11     5    18 1   
    12     6    13 1   
    13     7     8 2   
    14     7     9 1   
    15     7    19 1   
    16     8    13 1   
    17     8    30 1   
    18     9    10 1   
    19     9    12 2   
    20    10    11 1   
    21    10    23 1   
    22    10    24 1   
    23    11    25 1   
    24    11    26 1   
    25    11    27 1   
    26    12    13 1   
    27    14    28 1   
    28    14    29 1   
    29    20    30 1   
    30    21    30 1   
    31    22    30 1   
@<TRIPOS>SUBSTRUCTURE
     1 YXF         1 TEMP              0 ****  ****    0 ROOT
