@<TRIPOS>MOLECULE
YXG
   66    71     1     0     0
SMALL
No Charge or Current Charge


@<TRIPOS>ATOM
      1 C13         -4.1780    12.9190   -22.3390 ca         1 YXG       0.025800
      2 C18         -0.9910    12.8960   -23.6020 cc         1 YXG       0.275000
      3 C17         -0.2790     9.7010   -17.0950 ca         1 YXG       0.319300
      4 C16          1.3940    10.0790   -13.7290 cc         1 YXG      -0.058000
      5 C15         -6.9710    12.8160   -22.0090 ca         1 YXG       0.123000
      6 C19         -4.3460    10.9250   -19.0700 cc         1 YXG      -0.338200
      7 C20         -1.9070    10.2090   -19.8120 cc         1 YXG       0.542800
      8 C21         -3.8810    11.3760   -20.2880 cd         1 YXG       0.237400
      9 C22         -3.6040    10.1050   -18.1350 c          1 YXG       0.563200
     10 C23          1.4440     7.0920   -14.7700 c          1 YXG       0.604100
     11 C24          0.0340     6.7330   -17.6230 c3         1 YXG      -0.079400
     12 C11          1.0890    10.2440   -15.1540 ca         1 YXG       0.020000
     13 C12         -4.7190    12.1680   -21.2460 ca         1 YXG      -0.010800
     14 C27         -1.4510     8.9160   -17.7140 c3         1 YXG       0.048400
     15 Cl1         -8.7170    12.7330   -21.8100 cl         1 YXG      -0.180000
     16 Cl2          0.2850    12.3940   -24.6660 cl         1 YXG      -0.119000
     17 C3          -5.0370    13.6060   -23.2240 ca         1 YXG      -0.098000
     18 C4          -6.4270    13.5560   -23.0620 ca         1 YXG      -0.088000
     19 C5           1.9490    10.9300   -16.0290 ca         1 YXG      -0.122000
     20 C6          -0.0620     9.6570   -15.7050 ca         1 YXG      -0.119000
     21 C7          -6.1330    12.1300   -21.1180 ca         1 YXG      -0.082000
     22 C8           1.6410    10.9720   -17.3990 ca         1 YXG       0.357900
     23 C9           1.5050     9.2070   -11.6750 cd         1 YXG       0.261900
     24 C10         -2.2350    12.3480   -23.5620 cd         1 YXG      -0.170000
     25 C14          1.3360     8.8920   -13.0430 cd         1 YXG      -0.054400
     26 C25         -1.0000     7.5890   -18.4080 c3         1 YXG      -0.079400
     27 C26         -0.4540     6.1900   -16.2480 c3         1 YXG      -0.068400
     28 C28          0.6570     5.8330   -15.2120 c3         1 YXG      -0.135700
     29 C29          1.5910     4.6900   -15.6790 c3         1 YXG      -0.079100
     30 N31          0.5580    10.3590   -17.9330 nb         1 YXG      -0.665000
     31 N32          1.7040    10.5010   -11.4690 nc         1 YXG      -0.498800
     32 N33         -0.8550    13.9250   -22.7060 nc         1 YXG      -0.338000
     33 N34         -1.9980    14.0710   -22.0770 nd         1 YXG      -0.179800
     34 N35         -2.6050    10.9590   -20.6670 nd         1 YXG      -0.657300
     35 N36         -2.8070    13.0740   -22.5490 na         1 YXG       0.230000
     36 N37          1.6400    11.0430   -12.7480 na         1 YXG       0.049800
     37 N38          1.0850     7.6100   -13.5360 ns         1 YXG      -0.406100
     38 N39         -2.3410     9.7520   -18.5810 n          1 YXG      -0.303300
     39 O40         -4.0660     9.7670   -17.0550 o          1 YXG      -0.543000
     40 O41          2.3200     7.5970   -15.4580 o          1 YXG      -0.569100
     41 F42          0.7880    12.9730   -13.7580 f          1 YXG      -0.102500
     42 F43          2.9470    12.8270   -13.4900 f          1 YXG      -0.102500
     43 H52         -5.3200    11.2020   -18.6930 ha         1 YXG       0.218000
     44 H53         -0.9080     9.8960   -20.0840 h5         1 YXG       0.063800
     45 H54          0.3230     5.8770   -18.2460 hc         1 YXG       0.058700
     46 H55          0.9460     7.3250   -17.5090 hc         1 YXG       0.058700
     47 H60         -2.0510     8.5840   -16.8600 h1         1 YXG       0.097700
     48 H44         -4.6190    14.1910   -24.0410 ha         1 YXG       0.135000
     49 H45         -7.0800    14.0880   -23.7500 ha         1 YXG       0.139000
     50 H46          2.8610    11.3950   -15.6700 ha         1 YXG       0.139000
     51 H47         -0.7570     9.1270   -15.0620 ha         1 YXG       0.130000
     52 H48         -6.6120    11.5420   -20.3430 ha         1 YXG       0.143000
     53 H49          2.2980    11.4890   -18.0970 h4         1 YXG       0.034100
     54 H50          1.4970     8.5300   -10.8300 h4         1 YXG       0.048100
     55 H51         -2.7120    11.5510   -24.1140 h4         1 YXG       0.181000
     56 H57         -1.8880     6.9780   -18.6170 hc         1 YXG       0.053200
     57 H56         -0.5520     7.8200   -19.3820 hc         1 YXG       0.053200
     58 H58         -1.1220     6.9160   -15.7730 hc         1 YXG       0.043200
     59 H59         -1.0740     5.3030   -16.4280 hc         1 YXG       0.043200
     60 H61          0.1120     5.4690   -14.3320 hc         1 YXG       0.052700
     61 H64          2.2990     4.4220   -14.8850 hc         1 YXG       0.045367
     62 H62          1.0110     3.7950   -15.9340 hc         1 YXG       0.045367
     63 H63          2.1680     4.9870   -16.5630 hc         1 YXG       0.045367
     64 H65          1.6680    12.9950   -11.9570 h3         1 YXG       0.110700
     65 H66          0.5730     6.9590   -12.9520 hn         1 YXG       0.322500
     66 C30          1.7560    12.5090   -12.9320 c3         1 YXG       0.332300
@<TRIPOS>BOND
     1     1    13 ar  
     2     1    17 ar  
     3     1    35 1   
     4     2    16 1   
     5     2    24 2   
     6     2    32 1   
     7     3    14 1   
     8     3    20 ar  
     9     3    30 ar  
    10     4    12 1   
    11     4    25 2   
    12     4    36 1   
    13     5    15 1   
    14     5    18 ar  
    15     5    21 ar  
    16     6     8 2   
    17     6     9 1   
    18     6    43 1   
    19     7    34 2   
    20     7    38 1   
    21     7    44 1   
    22     8    13 1   
    23     8    34 1   
    24     9    38 1   
    25     9    39 2   
    26    10    28 1   
    27    10    37 1   
    28    10    40 2   
    29    11    26 1   
    30    11    27 1   
    31    11    45 1   
    32    11    46 1   
    33    12    19 ar  
    34    12    20 ar  
    35    13    21 ar  
    36    14    26 1   
    37    14    38 1   
    38    14    47 1   
    39    17    18 ar  
    40    17    48 1   
    41    18    49 1   
    42    19    22 ar  
    43    19    50 1   
    44    20    51 1   
    45    21    52 1   
    46    22    30 ar  
    47    22    53 1   
    48    23    25 1   
    49    23    31 2   
    50    23    54 1   
    51    24    35 1   
    52    24    55 1   
    53    25    37 1   
    54    26    56 1   
    55    26    57 1   
    56    27    28 1   
    57    27    58 1   
    58    27    59 1   
    59    28    29 1   
    60    28    60 1   
    61    29    61 1   
    62    29    62 1   
    63    29    63 1   
    64    31    36 1   
    65    32    33 2   
    66    33    35 1   
    67    36    66 1   
    68    37    65 1   
    69    41    66 1   
    70    42    66 1   
    71    64    66 1   
@<TRIPOS>SUBSTRUCTURE
     1 YXG         1 TEMP              0 ****  ****    0 ROOT
