@<TRIPOS>MOLECULE
YXG
   66    71     1     0     0
SMALL
abcg2


@<TRIPOS>ATOM
      1 C13         -4.0140    12.8230   -21.9570 ca         1 YXG       0.025800
      2 C18         -0.5070    12.9660   -21.8040 cc         1 YXG       0.275000
      3 C17         -0.6190     9.6050   -17.3050 ca         1 YXG       0.319300
      4 C16          1.2880    10.3060   -14.2010 cc         1 YXG      -0.058000
      5 C15         -6.7280    12.6250   -22.3370 ca         1 YXG       0.123000
      6 C19         -4.4950    10.8290   -18.9870 cc         1 YXG      -0.338200
      7 C20         -2.3150     9.5870   -19.9300 cc         1 YXG       0.542800
      8 C21         -4.0580    10.9830   -20.2610 cd         1 YXG       0.237400
      9 C22         -3.7630    10.0040   -18.0670 c          1 YXG       0.563200
     10 C23          1.4610     7.1780   -14.8050 c          1 YXG       0.604100
     11 C24         -0.0590     6.7270   -17.5000 c3         1 YXG      -0.079400
     12 C11          0.8620    10.3950   -15.5980 ca         1 YXG       0.020000
     13 C12         -4.7370    11.8900   -21.2130 ca         1 YXG      -0.010800
     14 C27         -1.7230     8.6700   -17.7370 c3         1 YXG       0.048400
     15 CL1         -8.4340    12.4960   -22.5690 cl         1 YXG      -0.180000
     16 CL2          1.1320    12.8750   -22.2490 cl         1 YXG      -0.119000
     17 C3          -4.6360    13.6350   -22.8890 ca         1 YXG      -0.098000
     18 C4          -6.0020    13.5310   -23.0940 ca         1 YXG      -0.088000
     19 C5           1.5810    11.0330   -16.6020 ca         1 YXG      -0.122000
     20 C6          -0.2910     9.7090   -15.9650 ca         1 YXG      -0.119000
     21 C7          -6.1100    11.8100   -21.4010 ca         1 YXG      -0.082000
     22 C8           1.1170    10.9440   -17.9060 ca         1 YXG       0.357900
     23 C9           1.8180     9.5970   -12.1690 cd         1 YXG       0.261900
     24 C10         -1.6100    12.7910   -22.5920 cd         1 YXG      -0.170000
     25 C14          1.3220     9.1730   -13.4160 cd         1 YXG      -0.054400
     26 C25         -1.1610     7.3740   -18.3410 c3         1 YXG      -0.079400
     27 C26         -0.4780     6.2580   -16.1070 c3         1 YXG      -0.068400
     28 C28          0.6940     5.9150   -15.1630 c3         1 YXG      -0.135700
     29 C29          1.6120     4.8430   -15.7350 c3         1 YXG      -0.079100
     30 N31          0.0600    10.2260   -18.2590 nb         1 YXG      -0.665000
     31 N32          2.0540    10.8860   -12.1700 nc         1 YXG      -0.498800
     32 N33         -0.8930    13.2310   -20.5460 nc         1 YXG      -0.338000
     33 N34         -2.1780    13.2320   -20.5070 nd         1 YXG      -0.179800
     34 N35         -2.9690    10.3340   -20.7530 nd         1 YXG      -0.657300
     35 N36         -2.6250    12.9690   -21.7270 na         1 YXG       0.230000
     36 N37          1.7500    11.3070   -13.4020 na         1 YXG       0.049800
     37 N38          0.9180     7.8850   -13.7740 ns         1 YXG      -0.406100
     38 N39         -2.6400     9.3810   -18.6370 n          1 YXG      -0.303300
     39 O40         -4.0350     9.8550   -16.8870 o          1 YXG      -0.543000
     40 O41          2.4510     7.5620   -15.4000 o          1 YXG      -0.569100
     41 F42          0.7840    13.1120   -14.3640 f          1 YXG      -0.102500
     42 F43          2.9450    12.9810   -14.4020 f          1 YXG      -0.102500
     43 H52         -5.3550    11.3650   -18.6110 ha         1 YXG       0.218000
     44 H53         -1.4400     9.0730   -20.2980 h5         1 YXG       0.063800
     45 H54          0.3080     5.8690   -18.0670 hc         1 YXG       0.058700
     46 H55          0.7880     7.4130   -17.4360 hc         1 YXG       0.058700
     47 H60         -2.3150     8.4060   -16.8640 h1         1 YXG       0.097700
     48 H44         -4.0600    14.3620   -23.4460 ha         1 YXG       0.135000
     49 H45         -6.4910    14.1610   -23.8230 ha         1 YXG       0.139000
     50 H46          2.4980    11.5670   -16.4010 ha         1 YXG       0.139000
     51 H47         -0.9120     9.2350   -15.2170 ha         1 YXG       0.130000
     52 H48         -6.6890    11.0910   -20.8370 ha         1 YXG       0.143000
     53 H49          1.6450    11.4560   -18.7030 h4         1 YXG       0.034100
     54 H50          1.9890     9.0020   -11.2840 h4         1 YXG       0.048100
     55 H51         -1.7420    12.5490   -23.6320 h4         1 YXG       0.181000
     56 H57         -1.9910     6.6770   -18.4850 hc         1 YXG       0.053200
     57 H56         -0.7300     7.5600   -19.3250 hc         1 YXG       0.053200
     58 H58         -1.1140     6.9970   -15.6130 hc         1 YXG       0.043200
     59 H59         -1.0980     5.3630   -16.2020 hc         1 YXG       0.043200
     60 H61          0.2430     5.5250   -14.2450 hc         1 YXG       0.052700
     61 H64          2.3680     4.5420   -15.0100 hc         1 YXG       0.045367
     62 H62          1.0300     3.9570   -15.9930 hc         1 YXG       0.045367
     63 H63          2.1260     5.1780   -16.6340 hc         1 YXG       0.045367
     64 H65          1.9160    13.2340   -12.7070 h3         1 YXG       0.110700
     65 H66          0.1230     7.4960   -13.2900 hn         1 YXG       0.322500
     66 C30          1.8530    12.7040   -13.6550 c3         1 YXG       0.332300
@<TRIPOS>BOND
     1     1    13 ar  
     2     1    17 ar  
     3     1    35 1   
     4     2    16 1   
     5     2    24 2   
     6     2    32 1   
     7     3    14 1   
     8     3    20 ar  
     9     3    30 ar  
    10     4    12 1   
    11     4    25 2   
    12     4    36 1   
    13     5    15 1   
    14     5    18 ar  
    15     5    21 ar  
    16     6     8 2   
    17     6     9 1   
    18     6    43 1   
    19     7    34 2   
    20     7    38 1   
    21     7    44 1   
    22     8    13 1   
    23     8    34 1   
    24     9    38 1   
    25     9    39 2   
    26    10    28 1   
    27    10    37 1   
    28    10    40 2   
    29    11    26 1   
    30    11    27 1   
    31    11    45 1   
    32    11    46 1   
    33    12    19 ar  
    34    12    20 ar  
    35    13    21 ar  
    36    14    26 1   
    37    14    38 1   
    38    14    47 1   
    39    17    18 ar  
    40    17    48 1   
    41    18    49 1   
    42    19    22 ar  
    43    19    50 1   
    44    20    51 1   
    45    21    52 1   
    46    22    30 ar  
    47    22    53 1   
    48    23    25 1   
    49    23    31 2   
    50    23    54 1   
    51    24    35 1   
    52    24    55 1   
    53    25    37 1   
    54    26    56 1   
    55    26    57 1   
    56    27    28 1   
    57    27    58 1   
    58    27    59 1   
    59    28    29 1   
    60    28    60 1   
    61    29    61 1   
    62    29    62 1   
    63    29    63 1   
    64    31    36 1   
    65    32    33 2   
    66    33    35 1   
    67    36    66 1   
    68    37    65 1   
    69    41    66 1   
    70    42    66 1   
    71    64    66 1   
@<TRIPOS>SUBSTRUCTURE
     1 YXG         1 TEMP              0 ****  ****    0 ROOT
