@<TRIPOS>MOLECULE
YXH
   20    21     1     0     0
SMALL
No Charge or Current Charge


@<TRIPOS>ATOM
      1 C10          7.9840   -19.6720    33.0300 ca         1 YXH       0.068400
      2 N01          3.7780   -17.7690    33.6480 n8         1 YXH      -1.024200
      3 C02          4.4760   -19.0820    33.8670 c3         1 YXH       0.131500
      4 C03          5.9060   -19.1620    33.3370 cc         1 YXH       0.408800
      5 N04          6.3680   -18.4240    32.2500 na         1 YXH      -0.295600
      6 C05          7.6750   -18.7540    32.0680 ca         1 YXH      -0.081200
      7 C06          8.5990   -18.3010    31.1180 ca         1 YXH      -0.114000
      8 C07          9.9050   -18.8330    31.1780 ca         1 YXH      -0.096000
      9 C08         10.2410   -19.7860    32.1700 ca         1 YXH      -0.137000
     10 C09          9.2750   -20.2150    33.1090 ca         1 YXH      -0.050000
     11 N11          6.8850   -19.9450    33.8410 nd         1 YXH      -0.585100
     12 H1           2.8420   -17.8090    34.0740 hn         1 YXH       0.408000
     13 H2           4.2540   -17.0380    34.1940 hn         1 YXH       0.408000
     14 H4           4.4910   -19.2980    34.9450 h1         1 YXH       0.060200
     15 H5           3.8890   -19.8750    33.3810 h1         1 YXH       0.060200
     16 H6           5.8150   -17.7620    31.7210 hn         1 YXH       0.373000
     17 H7           8.3240   -17.5680    30.3630 ha         1 YXH       0.116000
     18 H8          10.6550   -18.5090    30.4600 ha         1 YXH       0.111000
     19 H9          11.2500   -20.1920    32.2100 ha         1 YXH       0.112000
     20 H10          9.5240   -20.9460    33.8740 ha         1 YXH       0.126000
@<TRIPOS>BOND
     1     1     6 ar  
     2     1    10 ar  
     3     1    11 1   
     4     2     3 1   
     5     2    12 1   
     6     2    13 1   
     7     3     4 1   
     8     3    14 1   
     9     3    15 1   
    10     4     5 1   
    11     4    11 2   
    12     5     6 1   
    13     5    16 1   
    14     6     7 ar  
    15     7     8 ar  
    16     7    17 1   
    17     8     9 ar  
    18     8    18 1   
    19     9    10 ar  
    20     9    19 1   
    21    10    20 1   
@<TRIPOS>SUBSTRUCTURE
     1 YXH         1 TEMP              0 ****  ****    0 ROOT
