@<TRIPOS>MOLECULE
YXH
   20    21     1     0     0
SMALL
abcg2


@<TRIPOS>ATOM
      1 C10          7.9750   -19.6860    33.0640 ca         1 YXH       0.068400
      2 N01          3.9410   -17.7990    33.5510 n8         1 YXH      -1.024200
      3 C02          4.5430   -19.0670    33.9190 c3         1 YXH       0.131500
      4 C03          5.9450   -19.1490    33.4090 cc         1 YXH       0.408800
      5 N04          6.3430   -18.4070    32.3480 na         1 YXH      -0.295600
      6 C05          7.6500   -18.7210    32.0930 ca         1 YXH      -0.081200
      7 C06          8.5620   -18.2770    31.1430 ca         1 YXH      -0.114000
      8 C07          9.8300   -18.8320    31.1900 ca         1 YXH      -0.096000
      9 C08         10.1730   -19.7950    32.1510 ca         1 YXH      -0.137000
     10 C09          9.2580   -20.2310    33.0940 ca         1 YXH      -0.050000
     11 N11          6.8870   -19.9260    33.8710 nd         1 YXH      -0.585100
     12 H1           2.9360   -17.8600    33.6420 hn         1 YXH       0.408000
     13 H2           4.2420   -17.0720    34.1860 hn         1 YXH       0.408000
     14 H4           4.5540   -19.2850    34.9930 h1         1 YXH       0.060200
     15 H5           3.9660   -19.8700    33.4520 h1         1 YXH       0.060200
     16 H6           5.7580   -17.7330    31.8770 hn         1 YXH       0.373000
     17 H7           8.2980   -17.5350    30.4010 ha         1 YXH       0.116000
     18 H8          10.5720   -18.5180    30.4680 ha         1 YXH       0.111000
     19 H9          11.1750   -20.2040    32.1510 ha         1 YXH       0.112000
     20 H10          9.5280   -20.9730    33.8340 ha         1 YXH       0.126000
@<TRIPOS>BOND
     1     1     6 ar  
     2     1    10 ar  
     3     1    11 1   
     4     2     3 1   
     5     2    12 1   
     6     2    13 1   
     7     3     4 1   
     8     3    14 1   
     9     3    15 1   
    10     4     5 1   
    11     4    11 2   
    12     5     6 1   
    13     5    16 1   
    14     6     7 ar  
    15     7     8 ar  
    16     7    17 1   
    17     8     9 ar  
    18     8    18 1   
    19     9    10 ar  
    20     9    19 1   
    21    10    20 1   
@<TRIPOS>SUBSTRUCTURE
     1 YXH         1 TEMP              0 ****  ****    0 ROOT
