@<TRIPOS>MOLECULE
YXJ
   56    59     1     0     0
SMALL
abcg2


@<TRIPOS>ATOM
      1 C4           8.6090    -5.5780   -14.7300 ca         1 YXJ       0.646900
      2 C14         18.8570    -4.1770   -15.6760 c6         1 YXJ       0.159800
      3 C5          10.2990    -6.0830   -13.2510 ca         1 YXJ       0.687900
      4 C6          12.7280    -5.6600   -13.6710 ca         1 YXJ       0.311000
      5 C11         13.9250    -5.5230   -12.9670 ca         1 YXJ      -0.145500
      6 C7          12.7500    -5.4060   -15.0460 ca         1 YXJ      -0.145500
      7 C8          13.9300    -5.0230   -15.6600 ca         1 YXJ      -0.088000
      8 C9          15.1340    -4.8840   -14.9690 ca         1 YXJ      -0.097300
      9 C10         15.0990    -5.1460   -13.6030 ca         1 YXJ      -0.088000
     10 C12         16.3730    -4.4660   -15.7360 c6         1 YXJ      -0.008400
     11 C13         17.5730    -4.0800   -14.8600 c6         1 YXJ      -0.090900
     12 N1           8.6870    -7.6780   -10.3120 nt         1 YXJ      -0.580000
     13 N2           8.0700    -6.6460   -12.6910 nb         1 YXJ      -0.590000
     14 C3           7.6680    -6.1590   -13.8330 ca         1 YXJ       0.173900
     15 N3           9.8980    -5.5710   -14.4070 nb         1 YXJ      -0.823000
     16 C15         17.9580    -6.3780   -16.2410 c6         1 YXJ       0.159800
     17 C16         16.8050    -5.5410   -16.7660 c6         1 YXJ      -0.090900
     18 C17          9.2450    -4.4810   -16.8160 c6         1 YXJ       0.210800
     19 C18          9.5720    -5.5240   -17.8780 c6         1 YXJ      -0.106900
     20 C19          8.3000    -5.9620   -18.6020 c6         1 YXJ      -0.075400
     21 C2           9.3550    -6.6320   -12.3460 ca         1 YXJ       0.087500
     22 C20          7.2140    -6.3850   -17.6160 c6         1 YXJ      -0.106900
     23 C21          6.9900    -5.3010   -16.5640 c6         1 YXJ       0.210800
     24 N4          11.6180    -6.0800   -12.9420 nu         1 YXJ      -0.929900
     25 N5          19.1510    -5.5460   -16.1010 n7         1 YXJ      -0.865400
     26 N6           8.2430    -4.9910   -15.8910 nh         1 YXJ      -0.755300
     27 O1          10.8710    -7.2060   -10.6080 o          1 YXJ      -0.661100
     28 H13         18.7760    -3.5240   -16.5530 h1         1 YXJ       0.039450
     29 H8          13.9440    -5.7140   -11.8990 ha         1 YXJ       0.128500
     30 H5          11.8550    -5.5070   -15.6370 ha         1 YXJ       0.128500
     31 H6          13.9060    -4.8280   -16.7270 ha         1 YXJ       0.108500
     32 H7          15.9900    -5.0560   -12.9970 ha         1 YXJ       0.108500
     33 H9          16.0930    -3.5740   -16.3080 hc         1 YXJ       0.052700
     34 H11         17.6730    -4.7500   -14.0030 hc         1 YXJ       0.047450
     35 H10         17.4410    -3.0740   -14.4550 hc         1 YXJ       0.047450
     36 H2           8.8460    -8.0620    -9.3960 hn         1 YXJ       0.326500
     37 H1           7.7470    -7.6410   -10.6690 hn         1 YXJ       0.326500
     38 H3           6.6090    -6.2050   -14.0420 h4         1 YXJ       0.030100
     39 H16         17.6510    -6.8450   -15.2940 h1         1 YXJ       0.039450
     40 H15         18.1690    -7.1990   -16.9320 h1         1 YXJ       0.039450
     41 H18         17.1170    -5.0580   -17.6950 hc         1 YXJ       0.047450
     42 H17         15.9660    -6.1880   -17.0260 hc         1 YXJ       0.047450
     43 H19         10.1280    -4.1670   -16.2680 h1         1 YXJ       0.062200
     44 H20          8.8220    -3.5910   -17.2930 h1         1 YXJ       0.062200
     45 H22         10.0530    -6.3840   -17.4020 hc         1 YXJ       0.052700
     46 H21         10.2910    -5.1090   -18.5870 hc         1 YXJ       0.052700
     47 H23          7.9270    -5.1250   -19.2020 hc         1 YXJ       0.043700
     48 H24          8.5160    -6.7740   -19.2990 hc         1 YXJ       0.043700
     49 H25          6.2750    -6.5780   -18.1390 hc         1 YXJ       0.052700
     50 H26          7.4970    -7.3160   -17.1160 hc         1 YXJ       0.052700
     51 H28          6.6360    -4.3860   -17.0450 h1         1 YXJ       0.062200
     52 H27          6.2210    -5.5940   -15.8540 h1         1 YXJ       0.062200
     53 H4          11.8010    -6.4380   -12.0070 hn         1 YXJ       0.547000
     54 H14         19.7720    -5.9730   -15.4280 hn         1 YXJ       0.405000
     55 C1           9.7090    -7.1910   -11.0250 c          1 YXJ       0.542600
     56 H12         19.7050    -3.8040   -15.1000 h1         1 YXJ       0.039450
@<TRIPOS>BOND
     1     1    14 ar  
     2     1    15 ar  
     3     1    26 1   
     4     2    11 1   
     5     2    25 1   
     6     2    28 1   
     7     2    56 1   
     8     3    15 ar  
     9     3    21 ar  
    10     3    24 1   
    11     4     5 ar  
    12     4     6 ar  
    13     4    24 1   
    14     5     9 ar  
    15     5    29 1   
    16     6     7 ar  
    17     6    30 1   
    18     7     8 ar  
    19     7    31 1   
    20     8     9 ar  
    21     8    10 1   
    22     9    32 1   
    23    10    11 1   
    24    10    17 1   
    25    10    33 1   
    26    11    34 1   
    27    11    35 1   
    28    12    36 1   
    29    12    37 1   
    30    12    55 1   
    31    13    14 ar  
    32    13    21 ar  
    33    14    38 1   
    34    16    17 1   
    35    16    25 1   
    36    16    39 1   
    37    16    40 1   
    38    17    41 1   
    39    17    42 1   
    40    18    19 1   
    41    18    26 1   
    42    18    43 1   
    43    18    44 1   
    44    19    20 1   
    45    19    45 1   
    46    19    46 1   
    47    20    22 1   
    48    20    47 1   
    49    20    48 1   
    50    21    55 1   
    51    22    23 1   
    52    22    49 1   
    53    22    50 1   
    54    23    26 1   
    55    23    51 1   
    56    23    52 1   
    57    24    53 1   
    58    25    54 1   
    59    27    55 2   
@<TRIPOS>SUBSTRUCTURE
     1 YXJ         1 TEMP              0 ****  ****    0 ROOT
