@<TRIPOS>MOLECULE
YXJ
   56    59     1     0     0
SMALL
No Charge or Current Charge


@<TRIPOS>ATOM
      1 C4           8.5990    -5.8620   -14.7330 ca         1 YXJ       0.646900
      2 C14         18.3320    -3.7750   -16.3940 c6         1 YXJ       0.159800
      3 C5          10.2040    -6.3510   -13.1800 ca         1 YXJ       0.687900
      4 C6          12.7420    -6.1610   -13.6310 ca         1 YXJ       0.311000
      5 C11         13.8780    -5.7360   -12.9230 ca         1 YXJ      -0.145500
      6 C7          12.8520    -6.3880   -15.0170 ca         1 YXJ      -0.145500
      7 C8          14.0690    -6.1660   -15.6850 ca         1 YXJ      -0.088000
      8 C9          15.2010    -5.7200   -14.9770 ca         1 YXJ      -0.097300
      9 C10         15.0970    -5.5110   -13.5870 ca         1 YXJ      -0.088000
     10 C12         16.5270    -5.4790   -15.7160 c6         1 YXJ      -0.008400
     11 C13         17.0560    -4.0310   -15.5410 c6         1 YXJ      -0.090900
     12 N1           8.6130    -7.4820    -9.9640 nt         1 YXJ      -0.580000
     13 N2           7.8570    -6.6340   -12.5250 nb         1 YXJ      -0.590000
     14 C3           7.5780    -6.2190   -13.7910 ca         1 YXJ       0.173900
     15 N3           9.9100    -5.9260   -14.4190 nb         1 YXJ      -0.823000
     16 C15         19.0720    -6.0070   -15.5960 c6         1 YXJ       0.159800
     17 C16         17.6280    -6.5000   -15.2960 c6         1 YXJ      -0.090900
     18 C17          9.1610    -4.3450   -16.6870 c6         1 YXJ       0.210800
     19 C18          9.2480    -4.5180   -18.2220 c6         1 YXJ      -0.106900
     20 C19          7.8440    -4.6150   -18.8580 c6         1 YXJ      -0.075400
     21 C2           9.1960    -6.6950   -12.2160 ca         1 YXJ       0.087500
     22 C20          7.0460    -5.7560   -18.1890 c6         1 YXJ      -0.106900
     23 C21          6.9800    -5.5780   -16.6520 c6         1 YXJ       0.210800
     24 N4          11.5640    -6.3850   -12.9120 nu         1 YXJ      -0.929900
     25 N5          19.0960    -5.0170   -16.6970 n7         1 YXJ      -0.865400
     26 N6           8.3420    -5.4320   -16.0610 nh         1 YXJ      -0.755300
     27 O1          10.7580    -7.1420   -10.4090 o          1 YXJ      -0.661100
     28 H13         18.0500    -3.2980   -17.3450 h1         1 YXJ       0.039450
     29 H8          13.8190    -5.5700   -11.8510 ha         1 YXJ       0.128500
     30 H5          12.0040    -6.7550   -15.5850 ha         1 YXJ       0.128500
     31 H6          14.1290    -6.3470   -16.7560 ha         1 YXJ       0.108500
     32 H7          15.9610    -5.1780   -13.0150 ha         1 YXJ       0.108500
     33 H9          16.3460    -5.6190   -16.7920 hc         1 YXJ       0.052700
     34 H11         17.2930    -3.8490   -14.4840 hc         1 YXJ       0.047450
     35 H10         16.2790    -3.3030   -15.8110 hc         1 YXJ       0.047450
     36 H2           8.8370    -7.7660    -9.0230 hn         1 YXJ       0.326500
     37 H1           7.6560    -7.4580   -10.2880 hn         1 YXJ       0.326500
     38 H3           6.5220    -6.1570   -14.0460 h4         1 YXJ       0.030100
     39 H16         19.4910    -5.5410   -14.6900 h1         1 YXJ       0.039450
     40 H15         19.7110    -6.8670   -15.8460 h1         1 YXJ       0.039450
     41 H18         17.4480    -7.4490   -15.8200 hc         1 YXJ       0.047450
     42 H17         17.5550    -6.7310   -14.2250 hc         1 YXJ       0.047450
     43 H19         10.1880    -4.3230   -16.2940 h1         1 YXJ       0.062200
     44 H20          8.7130    -3.3650   -16.4610 h1         1 YXJ       0.062200
     45 H22          9.8240    -5.4250   -18.4540 hc         1 YXJ       0.052700
     46 H21          9.8010    -3.6760   -18.6590 hc         1 YXJ       0.052700
     47 H23          7.3110    -3.6620   -18.7360 hc         1 YXJ       0.043700
     48 H24          7.9300    -4.7950   -19.9390 hc         1 YXJ       0.043700
     49 H25          6.0290    -5.7950   -18.6020 hc         1 YXJ       0.052700
     50 H26          7.5160    -6.7210   -18.4230 hc         1 YXJ       0.052700
     51 H28          6.3670    -4.6960   -16.4130 h1         1 YXJ       0.062200
     52 H27          6.4650    -6.4580   -16.2390 h1         1 YXJ       0.062200
     53 H4          11.7110    -6.5760   -11.9150 hn         1 YXJ       0.547000
     54 H14         20.0680    -4.7660   -16.9200 hn         1 YXJ       0.405000
     55 C1           9.6030    -7.1200   -10.8130 c          1 YXJ       0.542600
     56 H12         18.9780    -3.0660   -15.8560 h1         1 YXJ       0.039450
@<TRIPOS>BOND
     1     1    14 ar  
     2     1    15 ar  
     3     1    26 1   
     4     2    11 1   
     5     2    25 1   
     6     2    28 1   
     7     2    56 1   
     8     3    15 ar  
     9     3    21 ar  
    10     3    24 1   
    11     4     5 ar  
    12     4     6 ar  
    13     4    24 1   
    14     5     9 ar  
    15     5    29 1   
    16     6     7 ar  
    17     6    30 1   
    18     7     8 ar  
    19     7    31 1   
    20     8     9 ar  
    21     8    10 1   
    22     9    32 1   
    23    10    11 1   
    24    10    17 1   
    25    10    33 1   
    26    11    34 1   
    27    11    35 1   
    28    12    36 1   
    29    12    37 1   
    30    12    55 1   
    31    13    14 ar  
    32    13    21 ar  
    33    14    38 1   
    34    16    17 1   
    35    16    25 1   
    36    16    39 1   
    37    16    40 1   
    38    17    41 1   
    39    17    42 1   
    40    18    19 1   
    41    18    26 1   
    42    18    43 1   
    43    18    44 1   
    44    19    20 1   
    45    19    45 1   
    46    19    46 1   
    47    20    22 1   
    48    20    47 1   
    49    20    48 1   
    50    21    55 1   
    51    22    23 1   
    52    22    49 1   
    53    22    50 1   
    54    23    26 1   
    55    23    51 1   
    56    23    52 1   
    57    24    53 1   
    58    25    54 1   
    59    27    55 2   
@<TRIPOS>SUBSTRUCTURE
     1 YXJ         1 TEMP              0 ****  ****    0 ROOT
