@<TRIPOS>MOLECULE
YXK
   19    19     1     0     0
SMALL
abcg2


@<TRIPOS>ATOM
      1 C10         21.1100   -47.0410     9.0130 cc         1 YXK       0.409800
      2 F01         20.0540   -49.3360     7.0530 f          1 YXK      -0.106667
      3 C02         20.5580   -48.5440     6.0980 c3         1 YXK       0.286000
      4 F03         21.7710   -49.0170     5.8000 f          1 YXK      -0.106667
      5 F04         19.7920   -48.6770     5.0130 f          1 YXK      -0.106667
      6 C05         20.6090   -47.0970     6.5420 c3         1 YXK      -0.000400
      7 N06         21.4470   -46.9380     7.7010 na         1 YXK      -0.178500
      8 C07         22.7970   -46.6900     7.6570 cc         1 YXK      -0.214000
      9 C08         23.2040   -46.6450     8.9530 cd         1 YXK       0.249900
     10 N09         22.1440   -46.8650     9.7870 nd         1 YXK      -0.645000
     11 C11         19.7320   -47.3440     9.5100 c3         1 YXK      -0.031600
     12 C12         19.4860   -46.6600    10.7700 c1         1 YXK       0.306900
     13 N13         19.2700   -46.1230    11.7630 n1         1 YXK      -0.437000
     14 H1          21.0060   -46.4890     5.7300 h1         1 YXK       0.097200
     15 H2          19.5980   -46.7430     6.7420 h1         1 YXK       0.097200
     16 H3          23.3210   -46.5580     6.7250 h4         1 YXK       0.164000
     17 H4          24.1980   -46.4620     9.3300 h4         1 YXK       0.047100
     18 H5          18.9540   -47.0380     8.8080 hc         1 YXK       0.083200
     19 H6          19.5990   -48.4170     9.6740 hc         1 YXK       0.083200
@<TRIPOS>BOND
     1     1     7 1   
     2     1    10 2   
     3     1    11 1   
     4     2     3 1   
     5     3     4 1   
     6     3     5 1   
     7     3     6 1   
     8     6     7 1   
     9     6    14 1   
    10     6    15 1   
    11     7     8 1   
    12     8     9 2   
    13     8    16 1   
    14     9    10 1   
    15     9    17 1   
    16    11    12 1   
    17    11    18 1   
    18    11    19 1   
    19    12    13 3   
@<TRIPOS>SUBSTRUCTURE
     1 YXK         1 TEMP              0 ****  ****    0 ROOT
