@<TRIPOS>MOLECULE
YXK
   19    19     1     0     0
SMALL
No Charge or Current Charge


@<TRIPOS>ATOM
      1 C10         21.2860   -47.2750     9.1900 cc         1 YXK       0.409800
      2 F01         20.1170   -49.3510     6.7640 f          1 YXK      -0.106667
      3 C02         20.4150   -48.3090     5.9550 c3         1 YXK       0.286000
      4 F03         21.5820   -48.5860     5.3290 f          1 YXK      -0.106667
      5 F04         19.4490   -48.2260     5.0130 f          1 YXK      -0.106667
      6 C05         20.5090   -46.9890     6.7520 c3         1 YXK      -0.000400
      7 N06         21.5070   -47.0070     7.8460 na         1 YXK      -0.178500
      8 C07         22.8540   -46.7500     7.7020 cc         1 YXK      -0.214000
      9 C08         23.3950   -46.8800     8.9540 cd         1 YXK       0.249900
     10 N09         22.4190   -47.2050     9.8720 nd         1 YXK      -0.645000
     11 C11         19.9550   -47.6000     9.8060 c3         1 YXK      -0.031600
     12 C12         19.1430   -46.4180    10.0850 c1         1 YXK       0.306900
     13 N13         18.4780   -45.4820    10.2830 n1         1 YXK      -0.437000
     14 H1          20.7730   -46.1820     6.0570 h1         1 YXK       0.097200
     15 H2          19.5200   -46.7480     7.1600 h1         1 YXK       0.097200
     16 H3          23.3200   -46.5060     6.7550 h4         1 YXK       0.164000
     17 H4          24.4320   -46.7560     9.2440 h4         1 YXK       0.047100
     18 H5          19.3870   -48.2710     9.1550 hc         1 YXK       0.083200
     19 H6          20.1070   -48.1400    10.7470 hc         1 YXK       0.083200
@<TRIPOS>BOND
     1     1     7 1   
     2     1    10 2   
     3     1    11 1   
     4     2     3 1   
     5     3     4 1   
     6     3     5 1   
     7     3     6 1   
     8     6     7 1   
     9     6    14 1   
    10     6    15 1   
    11     7     8 1   
    12     8     9 2   
    13     8    16 1   
    14     9    10 1   
    15     9    17 1   
    16    11    12 1   
    17    11    18 1   
    18    11    19 1   
    19    12    13 3   
@<TRIPOS>SUBSTRUCTURE
     1 YXK         1 TEMP              0 ****  ****    0 ROOT
