@<TRIPOS>MOLECULE
YXN
   30    31     1     0     0
SMALL
No Charge or Current Charge


@<TRIPOS>ATOM
      1 C15          4.8530   -13.4410    27.8840 ca         1 YXN      -0.056500
      2 C12          7.0790   -13.9220    28.7490 ca         1 YXN       0.301000
      3 C14          6.2380   -13.5830    27.6790 ca         1 YXN      -0.178000
      4 C11          6.5380   -14.1200    30.0270 ca         1 YXN      -0.178000
      5 C10          5.1540   -13.9790    30.2400 ca         1 YXN      -0.056500
      6 C9           4.3080   -13.6360    29.1680 ca         1 YXN      -0.039200
      7 C4           1.1260   -12.4360    29.8490 cc         1 YXN      -0.233000
      8 C5           0.8900   -13.7960    29.5670 cc         1 YXN       0.256300
      9 C6          -0.4850   -14.3970    29.6040 c3         1 YXN      -0.117400
     10 C3           2.4670   -12.2190    29.7280 cd         1 YXN      -0.121300
     11 C2           3.3010   -10.9680    29.9090 c3         1 YXN      -0.011100
     12 C1           2.4780    -9.7250    30.2990 c3         1 YXN      -0.085100
     13 N7           1.9790   -14.4780    29.2710 nd         1 YXN      -0.516800
     14 N8           2.9380   -13.4900    29.3760 na         1 YXN       0.223000
     15 N13          8.4230   -14.0610    28.5450 nv         1 YXN      -1.075000
     16 H1           4.2050   -13.1770    27.0510 ha         1 YXN       0.126500
     17 H2           6.6520   -13.4290    26.6860 ha         1 YXN       0.116500
     18 H3           7.1850   -14.3820    30.8600 ha         1 YXN       0.116500
     19 H4           4.7390   -14.1330    31.2340 ha         1 YXN       0.126500
     20 H5           0.3610   -11.7130    30.1130 ha         1 YXN       0.142000
     21 H6          -0.4630   -15.4630    29.3480 hc         1 YXN       0.045033
     22 H7          -0.9230   -14.2990    30.6040 hc         1 YXN       0.045033
     23 H8          -1.1470   -13.8920    28.8910 hc         1 YXN       0.045033
     24 H9           4.0610   -11.1390    30.6820 hc         1 YXN       0.052700
     25 H10          3.8460   -10.7490    28.9820 hc         1 YXN       0.052700
     26 H11          3.1340    -8.8540    30.4150 hc         1 YXN       0.037700
     27 H12          1.7360    -9.4940    29.5260 hc         1 YXN       0.037700
     28 H13          1.9540    -9.8890    31.2480 hc         1 YXN       0.037700
     29 H14          9.0090   -14.4500    29.2820 hn         1 YXN       0.453500
     30 H15          8.7960   -14.0650    27.5970 hn         1 YXN       0.453500
@<TRIPOS>BOND
     1     1     3 ar  
     2     1     6 ar  
     3     1    16 1   
     4     2     3 ar  
     5     2     4 ar  
     6     2    15 1   
     7     3    17 1   
     8     4     5 ar  
     9     4    18 1   
    10     5     6 ar  
    11     5    19 1   
    12     6    14 1   
    13     7     8 1   
    14     7    10 2   
    15     7    20 1   
    16     8     9 1   
    17     8    13 2   
    18     9    21 1   
    19     9    22 1   
    20     9    23 1   
    21    10    11 1   
    22    10    14 1   
    23    11    12 1   
    24    11    24 1   
    25    11    25 1   
    26    12    26 1   
    27    12    27 1   
    28    12    28 1   
    29    13    14 1   
    30    15    29 1   
    31    15    30 1   
@<TRIPOS>SUBSTRUCTURE
     1 YXN         1 TEMP              0 ****  ****    0 ROOT
