@<TRIPOS>MOLECULE
YXN
   30    31     1     0     0
SMALL
abcg2


@<TRIPOS>ATOM
      1 C15          4.7710   -13.8480    27.8680 ca         1 YXN      -0.056500
      2 C12          7.0750   -14.0180    28.5980 ca         1 YXN       0.301000
      3 C14          6.1010   -14.1080    27.5940 ca         1 YXN      -0.178000
      4 C11          6.6560   -13.6730    29.8900 ca         1 YXN      -0.178000
      5 C10          5.3210   -13.4320    30.1630 ca         1 YXN      -0.056500
      6 C9           4.3690   -13.5050    29.1540 ca         1 YXN      -0.039200
      7 C4           1.0930   -12.3770    29.9880 cc         1 YXN      -0.233000
      8 C5           0.9240   -13.6680    29.4500 cc         1 YXN       0.256300
      9 C6          -0.3460   -14.4220    29.2560 c3         1 YXN      -0.117400
     10 C3           2.4480   -12.1400    29.9540 cd         1 YXN      -0.121300
     11 C2           3.2350   -10.9340    30.3490 c3         1 YXN      -0.011100
     12 C1           2.3630    -9.7030    30.5500 c3         1 YXN      -0.085100
     13 N7           2.0880   -14.1880    29.1130 nd         1 YXN      -0.516800
     14 N8           3.0040   -13.2580    29.4250 na         1 YXN       0.223000
     15 N13          8.4050   -14.2120    28.3130 nv         1 YXN      -1.075000
     16 H1           4.0380   -13.9150    27.0740 ha         1 YXN       0.126500
     17 H2           6.3950   -14.3760    26.5860 ha         1 YXN       0.116500
     18 H3           7.3830   -13.6090    30.6900 ha         1 YXN       0.116500
     19 H4           5.0220   -13.1970    31.1760 ha         1 YXN       0.126500
     20 H5           0.3240   -11.7090    30.3420 ha         1 YXN       0.142000
     21 H6          -0.1590   -15.3890    28.7910 hc         1 YXN       0.045033
     22 H7          -0.8510   -14.5980    30.2070 hc         1 YXN       0.045033
     23 H8          -1.0420   -13.8710    28.6220 hc         1 YXN       0.045033
     24 H9           3.7870   -11.1360    31.2710 hc         1 YXN       0.052700
     25 H10          3.9930   -10.7310    29.5880 hc         1 YXN       0.052700
     26 H11          2.9770    -8.8500    30.8390 hc         1 YXN       0.037700
     27 H12          1.8300    -9.4370    29.6370 hc         1 YXN       0.037700
     28 H13          1.6250    -9.8590    31.3360 hc         1 YXN       0.037700
     29 H14          8.9960   -14.4530    29.0930 hn         1 YXN       0.453500
     30 H15          8.6080   -14.7660    27.4970 hn         1 YXN       0.453500
@<TRIPOS>BOND
     1     1     3 ar  
     2     1     6 ar  
     3     1    16 1   
     4     2     3 ar  
     5     2     4 ar  
     6     2    15 1   
     7     3    17 1   
     8     4     5 ar  
     9     4    18 1   
    10     5     6 ar  
    11     5    19 1   
    12     6    14 1   
    13     7     8 1   
    14     7    10 2   
    15     7    20 1   
    16     8     9 1   
    17     8    13 2   
    18     9    21 1   
    19     9    22 1   
    20     9    23 1   
    21    10    11 1   
    22    10    14 1   
    23    11    12 1   
    24    11    24 1   
    25    11    25 1   
    26    12    26 1   
    27    12    27 1   
    28    12    28 1   
    29    13    14 1   
    30    15    29 1   
    31    15    30 1   
@<TRIPOS>SUBSTRUCTURE
     1 YXN         1 TEMP              0 ****  ****    0 ROOT
