@<TRIPOS>MOLECULE
YXO
   21    22     1     0     0
SMALL
No Charge or Current Charge


@<TRIPOS>ATOM
      1 C10         27.4800   -39.7850     5.2590 ca         1 YXO      -0.134000
      2 N01         28.2750   -41.5470     3.8220 nv         1 YXO      -1.060000
      3 C02         28.0120   -41.0790     5.0840 ca         1 YXO       0.258000
      4 C03         28.2750   -41.8970     6.2090 ca         1 YXO      -0.142000
      5 C04         28.0100   -41.4340     7.5180 ca         1 YXO      -0.091000
      6 C05         27.4780   -40.1420     7.6600 ca         1 YXO      -0.065200
      7 N06         27.1260   -39.4370     8.8080 na         1 YXO      -0.176700
      8 C07         26.6400   -38.1540     8.4710 cc         1 YXO      -0.129100
      9 C08         26.7060   -38.1200     7.0840 cd         1 YXO      -0.236200
     10 C09         27.2290   -39.3580     6.5680 ca         1 YXO      -0.047800
     11 C11         27.2770   -40.0150    10.1600 c3         1 YXO       0.320300
     12 F12         26.3440   -39.5100    11.0010 f          1 YXO      -0.117000
     13 F13         28.4870   -39.6920    10.6710 f          1 YXO      -0.117000
     14 H1          27.2730   -39.1390     4.4120 ha         1 YXO       0.118000
     15 H2          28.5500   -42.5180     3.6820 hn         1 YXO       0.438500
     16 H3          27.9830   -41.0130     3.0050 hn         1 YXO       0.438500
     17 H4          28.6880   -42.8930     6.0700 ha         1 YXO       0.113000
     18 H5          28.2170   -42.0640     8.3790 ha         1 YXO       0.112000
     19 H6          26.3080   -37.4210     9.2010 h4         1 YXO       0.224000
     20 H7          26.4060   -37.2690     6.4760 ha         1 YXO       0.208000
     21 H8          27.1730   -41.1020    10.1100 h3         1 YXO       0.086700
@<TRIPOS>BOND
     1     1     3 ar  
     2     1    10 ar  
     3     1    14 1   
     4     2     3 1   
     5     2    15 1   
     6     2    16 1   
     7     3     4 ar  
     8     4     5 ar  
     9     4    17 1   
    10     5     6 ar  
    11     5    18 1   
    12     6     7 1   
    13     6    10 ar  
    14     7     8 1   
    15     7    11 1   
    16     8     9 2   
    17     8    19 1   
    18     9    10 1   
    19     9    20 1   
    20    11    12 1   
    21    11    13 1   
    22    11    21 1   
@<TRIPOS>SUBSTRUCTURE
     1 YXO         1 TEMP              0 ****  ****    0 ROOT
