@<TRIPOS>MOLECULE
YXO
   21    22     1     0     0
SMALL
abcg2


@<TRIPOS>ATOM
      1 C10         27.5270   -39.7810     5.2760 ca         1 YXO      -0.134000
      2 N01         28.3730   -41.5110     3.8080 nv         1 YXO      -1.060000
      3 C02         28.0340   -41.0600     5.0770 ca         1 YXO       0.258000
      4 C03         28.2640   -41.8900     6.1960 ca         1 YXO      -0.142000
      5 C04         27.9980   -41.4750     7.4860 ca         1 YXO      -0.091000
      6 C05         27.4920   -40.1930     7.6680 ca         1 YXO      -0.065200
      7 N06         27.1210   -39.5060     8.8160 na         1 YXO      -0.176700
      8 C07         26.6860   -38.2470     8.4540 cc         1 YXO      -0.129100
      9 C08         26.7480   -38.1130     7.1050 cd         1 YXO      -0.236200
     10 C09         27.2590   -39.3430     6.5750 ca         1 YXO      -0.047800
     11 C11         27.2760   -39.9600    10.1350 c3         1 YXO       0.320300
     12 F12         26.1790   -39.6450    10.8650 f          1 YXO      -0.117000
     13 F13         28.3150   -39.3330    10.7510 f          1 YXO      -0.117000
     14 H1          27.3430   -39.1290     4.4300 ha         1 YXO       0.118000
     15 H2          28.3290   -42.5110     3.6920 hn         1 YXO       0.438500
     16 H3          27.8900   -41.0460     3.0550 hn         1 YXO       0.438500
     17 H4          28.6610   -42.8860     6.0370 ha         1 YXO       0.113000
     18 H5          28.1910   -42.1470     8.3130 ha         1 YXO       0.112000
     19 H6          26.3570   -37.5380     9.1970 h4         1 YXO       0.224000
     20 H7          26.4560   -37.2380     6.5460 ha         1 YXO       0.208000
     21 H8          27.4390   -41.0360    10.1690 h3         1 YXO       0.086700
@<TRIPOS>BOND
     1     1     3 ar  
     2     1    10 ar  
     3     1    14 1   
     4     2     3 1   
     5     2    15 1   
     6     2    16 1   
     7     3     4 ar  
     8     4     5 ar  
     9     4    17 1   
    10     5     6 ar  
    11     5    18 1   
    12     6     7 1   
    13     6    10 ar  
    14     7     8 1   
    15     7    11 1   
    16     8     9 2   
    17     8    19 1   
    18     9    10 1   
    19     9    20 1   
    20    11    12 1   
    21    11    13 1   
    22    11    21 1   
@<TRIPOS>SUBSTRUCTURE
     1 YXO         1 TEMP              0 ****  ****    0 ROOT
