@<TRIPOS>MOLECULE
YXP
   30    31     1     0     0
SMALL
No Charge or Current Charge


@<TRIPOS>ATOM
      1 C4         -36.9780    -7.9670    18.1560 ca         1 YXP      -0.051500
      2 C5         -36.6460    -9.1060    17.3980 ca         1 YXP      -0.084800
      3 C6         -35.2170    -9.5140    17.2800 ce         1 YXP      -0.090200
      4 C11        -33.0630   -10.2840    16.1770 c          1 YXP       0.583200
      5 C7         -34.5070    -9.9570    16.1820 cd         1 YXP      -0.063600
      6 C8         -33.6510   -10.6600    13.8770 c          1 YXP       0.625600
      7 C10        -30.8180   -12.3630    15.3070 c          1 YXP       0.721000
      8 C12        -37.6770    -9.8550    16.7970 ca         1 YXP      -0.051500
      9 C13        -39.0180    -9.4560    16.9360 ca         1 YXP      -0.182000
     10 N1         -32.6840   -10.6580    14.8870 n          1 YXP      -0.321400
     11 C3         -38.3190    -7.5660    18.2960 ca         1 YXP      -0.182000
     12 C1         -41.1210    -6.8170    18.5210 c3         1 YXP       0.151900
     13 C2         -39.3470    -8.3120    17.6800 ca         1 YXP       0.140100
     14 S1         -35.2360   -10.1350    14.5850 ss         1 YXP      -0.274200
     15 O2         -33.4650   -10.9630    12.7080 o          1 YXP      -0.475000
     16 O3         -31.5930   -13.3090    15.3340 o          1 YXP      -0.716000
     17 O4         -29.7040   -12.3860    15.8110 o          1 YXP      -0.716000
     18 H1         -36.1930    -7.3860    18.6350 ha         1 YXP       0.123500
     19 H2         -34.6330    -9.3950    18.1950 ha         1 YXP       0.195000
     20 H4         -31.1240   -11.2060    13.5260 h1         1 YXP       0.053200
     21 H5         -30.6060   -10.2520    14.9220 h1         1 YXP       0.053200
     22 H6         -37.4450   -10.7560    16.2350 ha         1 YXP       0.123500
     23 H7         -39.8060   -10.0400    16.4690 ha         1 YXP       0.117500
     24 H8         -38.5380    -6.6790    18.8820 ha         1 YXP       0.117500
     25 H9         -42.2130    -6.7290    18.4710 h1         1 YXP       0.037367
     26 H10        -40.8340    -6.8990    19.5770 h1         1 YXP       0.037367
     27 H11        -40.6860    -5.8980    18.1070 h1         1 YXP       0.037367
     28 C9         -31.2720   -11.0630    14.6030 c3         1 YXP      -0.065000
     29 O1         -40.6790    -7.9700    17.7810 os         1 YXP      -0.344100
     30 O5         -32.3080   -10.2300    17.1400 o          1 YXP      -0.501000
@<TRIPOS>BOND
     1     1     2 ar  
     2     1    11 ar  
     3     1    18 1   
     4     2     3 1   
     5     2     8 ar  
     6     3     5 2   
     7     3    19 1   
     8     4     5 1   
     9     4    10 1   
    10     4    30 2   
    11     5    14 1   
    12     6    10 1   
    13     6    14 1   
    14     6    15 2   
    15     7    16 1   
    16     7    17 1   
    17     7    28 1   
    18     8     9 ar  
    19     8    22 1   
    20     9    13 ar  
    21     9    23 1   
    22    10    28 1   
    23    11    13 ar  
    24    11    24 1   
    25    12    25 1   
    26    12    26 1   
    27    12    27 1   
    28    12    29 1   
    29    13    29 1   
    30    20    28 1   
    31    21    28 1   
@<TRIPOS>SUBSTRUCTURE
     1 YXP         1 TEMP              0 ****  ****    0 ROOT
