@<TRIPOS>MOLECULE
YXP
   30    31     1     0     0
SMALL
abcg2


@<TRIPOS>ATOM
      1 C4         -36.9900    -8.0330    18.1520 ca         1 YXP      -0.051500
      2 C5         -36.6290    -8.8750    17.0950 ca         1 YXP      -0.084800
      3 C6         -35.2200    -9.1460    16.9090 ce         1 YXP      -0.090200
      4 C11        -33.0950    -9.9790    16.0060 c          1 YXP       0.583200
      5 C7         -34.5660    -9.8370    15.9600 cd         1 YXP      -0.063600
      6 C8         -33.5790   -11.1560    14.0460 c          1 YXP       0.625600
      7 C10        -31.0200   -12.4410    15.5410 c          1 YXP       0.721000
      8 C12        -37.6670    -9.3990    16.3080 ca         1 YXP      -0.051500
      9 C13        -38.9840    -9.0940    16.5680 ca         1 YXP      -0.182000
     10 N1         -32.6350   -10.6570    14.8990 n          1 YXP      -0.321400
     11 C3         -38.3080    -7.7120    18.4230 ca         1 YXP      -0.182000
     12 C1         -41.0320    -7.1270    18.8350 c3         1 YXP       0.151900
     13 C2         -39.3230    -8.2450    17.6290 ca         1 YXP       0.140100
     14 S1         -35.2060   -10.6570    14.5520 ss         1 YXP      -0.274200
     15 O2         -33.3750   -11.8250    13.0690 o          1 YXP      -0.475000
     16 O3         -32.0010   -12.9610    16.0940 o          1 YXP      -0.716000
     17 O4         -29.8470   -12.8460    15.4870 o          1 YXP      -0.716000
     18 H1         -36.2160    -7.6150    18.7840 ha         1 YXP       0.123500
     19 H2         -34.5750    -8.7150    17.6680 ha         1 YXP       0.195000
     20 H4         -30.9930   -11.1890    13.7530 h1         1 YXP       0.053200
     21 H5         -30.6220   -10.3190    15.2260 h1         1 YXP       0.053200
     22 H6         -37.4690   -10.0670    15.4810 ha         1 YXP       0.123500
     23 H7         -39.7690    -9.5120    15.9520 ha         1 YXP       0.117500
     24 H8         -38.5250    -7.0530    19.2530 ha         1 YXP       0.117500
     25 H9         -42.1160    -7.0740    18.7850 h1         1 YXP       0.037367
     26 H10        -40.7410    -7.4950    19.8220 h1         1 YXP       0.037367
     27 H11        -40.6220    -6.1240    18.6950 h1         1 YXP       0.037367
     28 C9         -31.2590   -11.0970    14.8050 c3         1 YXP      -0.065000
     29 O1         -40.6270    -8.0090    17.8040 os         1 YXP      -0.344100
     30 O5         -32.3720    -9.5540    16.8770 o          1 YXP      -0.501000
@<TRIPOS>BOND
     1     1     2 ar  
     2     1    11 ar  
     3     1    18 1   
     4     2     3 1   
     5     2     8 ar  
     6     3     5 2   
     7     3    19 1   
     8     4     5 1   
     9     4    10 1   
    10     4    30 2   
    11     5    14 1   
    12     6    10 1   
    13     6    14 1   
    14     6    15 2   
    15     7    16 1   
    16     7    17 1   
    17     7    28 1   
    18     8     9 ar  
    19     8    22 1   
    20     9    13 ar  
    21     9    23 1   
    22    10    28 1   
    23    11    13 ar  
    24    11    24 1   
    25    12    25 1   
    26    12    26 1   
    27    12    27 1   
    28    12    29 1   
    29    13    29 1   
    30    20    28 1   
    31    21    28 1   
@<TRIPOS>SUBSTRUCTURE
     1 YXP         1 TEMP              0 ****  ****    0 ROOT
