@<TRIPOS>MOLECULE
YXT
   60    63     1     0     0
SMALL
abcg2


@<TRIPOS>ATOM
      1 C10         52.1040     1.9690    23.9220 ca         1 YXT      -0.154000
      2 N12         50.4100     1.1020    22.4600 nb         1 YXT      -0.702000
      3 C13         50.0160     0.8630    24.7730 cc         1 YXT      -0.238500
      4 C20         46.8460    -1.6010    27.1220 c3         1 YXT      -0.083100
      5 C21         47.9600    -2.8460    25.2610 c3         1 YXT      -0.083100
      6 C22         50.5580     2.0470    27.0110 ca         1 YXT      -0.119500
      7 C24         51.4790     2.5820    29.1890 ca         1 YXT      -0.158500
      8 C26         51.3650     4.2850    27.4800 ca         1 YXT      -0.158500
      9 C01         50.7960    -1.0050    18.1370 c3         1 YXT      -0.086767
     10 C02         49.7600    -0.6900    19.2150 c3         1 YXT      -0.064000
     11 C03         48.3670    -1.0470    18.6930 c3         1 YXT      -0.086767
     12 C04         50.0610    -1.5210    20.4610 c3         1 YXT      -0.086767
     13 C07         51.1760     1.4940    21.4770 ca         1 YXT       0.349500
     14 C08         52.4110     2.1590    21.5770 ca         1 YXT       0.074400
     15 C09         52.8900     2.3940    22.8550 ca         1 YXT      -0.038000
     16 C11         50.8720     1.3490    23.6960 ca         1 YXT       0.426500
     17 C14         49.8940     1.0820    26.1300 cd         1 YXT       0.315500
     18 C16         48.4630    -0.4490    25.6410 cc         1 YXT       0.420800
     19 C18         47.3820    -1.4930    25.6970 c3         1 YXT      -0.071300
     20 C19         46.2410    -1.0970    24.7500 c3         1 YXT      -0.083100
     21 C23         50.9070     1.6750    28.3100 ca         1 YXT      -0.067500
     22 C25         51.6970     3.8760    28.7580 ca         1 YXT       0.169000
     23 C27         50.7900     3.3650    26.6160 ca         1 YXT      -0.067500
     24 C30         51.9920     1.9750    19.5030 cc         1 YXT       0.656700
     25 F28         52.2350     4.7660    29.6080 f          1 YXT      -0.182000
     26 N06         50.9320     1.3660    20.1280 na         1 YXT      -0.320300
     27 N15         48.9360     0.2480    26.6440 nd         1 YXT      -0.676000
     28 N17         49.0860    -0.1030    24.4980 na         1 YXT      -0.274500
     29 N29         52.8980     2.4440    20.3310 nd         1 YXT      -0.640100
     30 N31         52.0360     2.1430    18.1650 nv         1 YXT      -1.016200
     31 H101        52.4590     2.1100    24.9330 ha         1 YXT       0.137000
     32 H202        46.4170    -0.6590    27.4620 hc         1 YXT       0.039922
     33 H201        46.0640    -2.3610    27.1630 hc         1 YXT       0.039922
     34 H203        47.6290    -1.8870    27.8250 hc         1 YXT       0.039922
     35 H213        48.7800    -3.1550    25.9110 hc         1 YXT       0.039922
     36 H212        47.1870    -3.6150    25.3070 hc         1 YXT       0.039922
     37 H211        48.3350    -2.8170    24.2360 hc         1 YXT       0.039922
     38 H241        51.7490     2.2850    30.1950 ha         1 YXT       0.130000
     39 H261        51.5330     5.3070    27.1680 ha         1 YXT       0.130000
     40 H012        51.8110    -0.7610    18.4560 hc         1 YXT       0.038033
     41 H013        50.7820    -2.0710    17.9020 hc         1 YXT       0.038033
     42 H011        50.5820    -0.4690    17.2080 hc         1 YXT       0.038033
     43 H032        47.5990    -0.8500    19.4440 hc         1 YXT       0.038033
     44 H033        48.1140    -0.4750    17.7970 hc         1 YXT       0.038033
     45 H031        48.3150    -2.1060    18.4350 hc         1 YXT       0.038033
     46 H042        51.0570    -1.3200    20.8570 hc         1 YXT       0.038033
     47 H043        49.3390    -1.3270    21.2560 hc         1 YXT       0.038033
     48 H041        50.0140    -2.5850    20.2200 hc         1 YXT       0.038033
     49 H052        49.4890     1.3830    18.6410 h1         1 YXT       0.065700
     50 H051        48.9200     1.0040    20.2530 h1         1 YXT       0.065700
     51 H091        53.8410     2.8800    23.0280 ha         1 YXT       0.136000
     52 H192        45.8150    -0.1310    25.0270 hc         1 YXT       0.039922
     53 H193        46.5740    -1.0340    23.7120 hc         1 YXT       0.039922
     54 H191        45.4440    -1.8410    24.7920 hc         1 YXT       0.039922
     55 H231        50.7300     0.6610    28.6430 ha         1 YXT       0.125500
     56 H271        50.5010     3.6910    25.6250 ha         1 YXT       0.125500
     57 H171        48.9220    -0.4720    23.5730 hn         1 YXT       0.367000
     58 H311        52.9220     2.4530    17.7980 hn         1 YXT       0.484500
     59 H312        51.5500     1.4980    17.5660 hn         1 YXT       0.484500
     60 C05         49.7260     0.8130    19.5430 c3         1 YXT       0.088600
@<TRIPOS>BOND
     1     1    15 ar  
     2     1    16 ar  
     3     1    31 1   
     4     2    13 ar  
     5     2    16 ar  
     6     3    16 1   
     7     3    17 2   
     8     3    28 1   
     9     4    19 1   
    10     4    32 1   
    11     4    33 1   
    12     4    34 1   
    13     5    19 1   
    14     5    35 1   
    15     5    36 1   
    16     5    37 1   
    17     6    17 1   
    18     6    21 ar  
    19     6    23 ar  
    20     7    21 ar  
    21     7    22 ar  
    22     7    38 1   
    23     8    22 ar  
    24     8    23 ar  
    25     8    39 1   
    26     9    10 1   
    27     9    40 1   
    28     9    41 1   
    29     9    42 1   
    30    10    11 1   
    31    10    12 1   
    32    10    60 1   
    33    11    43 1   
    34    11    44 1   
    35    11    45 1   
    36    12    46 1   
    37    12    47 1   
    38    12    48 1   
    39    13    14 ar  
    40    13    26 1   
    41    14    15 ar  
    42    14    29 1   
    43    15    51 1   
    44    17    27 1   
    45    18    19 1   
    46    18    27 2   
    47    18    28 1   
    48    19    20 1   
    49    20    52 1   
    50    20    53 1   
    51    20    54 1   
    52    21    55 1   
    53    22    25 1   
    54    23    56 1   
    55    24    26 1   
    56    24    29 2   
    57    24    30 1   
    58    26    60 1   
    59    28    57 1   
    60    30    58 1   
    61    30    59 1   
    62    49    60 1   
    63    50    60 1   
@<TRIPOS>SUBSTRUCTURE
     1 YXT         1 TEMP              0 ****  ****    0 ROOT
