@<TRIPOS>MOLECULE
YXT
   60    63     1     0     0
SMALL
No Charge or Current Charge


@<TRIPOS>ATOM
      1 C10         52.2930     1.2600    24.1160 ca         1 YXT      -0.154000
      2 N12         50.4900     0.9090    22.5280 nb         1 YXT      -0.702000
      3 C13         50.0520     0.3880    24.8200 cc         1 YXT      -0.238500
      4 C20         47.0000    -1.8780    27.6300 c3         1 YXT      -0.083100
      5 C21         47.9780    -3.2570    25.7600 c3         1 YXT      -0.083100
      6 C22         50.4340     2.0950    26.7480 ca         1 YXT      -0.119500
      7 C24         50.8970     3.3540    28.8030 ca         1 YXT      -0.158500
      8 C26         51.3080     4.3850    26.6450 ca         1 YXT      -0.158500
      9 C01         50.7450    -0.5940    17.9050 c3         1 YXT      -0.086767
     10 C02         49.6670    -0.2360    18.9620 c3         1 YXT      -0.064000
     11 C03         48.2730    -0.2830    18.2850 c3         1 YXT      -0.086767
     12 C04         49.7010    -1.2910    20.1000 c3         1 YXT      -0.086767
     13 C07         51.3390     1.3190    21.5630 ca         1 YXT       0.349500
     14 C08         52.6440     1.7220    21.7950 ca         1 YXT       0.074400
     15 C09         53.1610     1.6960    23.0960 ca         1 YXT      -0.038000
     16 C11         50.9590     0.9060    23.8000 ca         1 YXT       0.426500
     17 C14         49.8940     0.8710    26.1010 cd         1 YXT       0.315500
     18 C16         48.5020    -0.7960    25.8770 cc         1 YXT       0.420800
     19 C18         47.4300    -1.8530    26.1350 c3         1 YXT      -0.071300
     20 C19         46.1800    -1.5440    25.2670 c3         1 YXT      -0.083100
     21 C23         50.4310     2.1940    28.1600 ca         1 YXT      -0.067500
     22 C25         51.3430     4.4430    28.0440 ca         1 YXT       0.169000
     23 C27         50.8440     3.2250    26.0000 ca         1 YXT      -0.067500
     24 C30         52.3680     1.9490    19.7190 cc         1 YXT       0.656700
     25 F28         51.7860     5.5600    28.6610 f          1 YXT      -0.182000
     26 N06         51.1770     1.4470    20.2150 na         1 YXT      -0.320300
     27 N15         48.9450     0.0990    26.7510 nd         1 YXT      -0.676000
     28 N17         49.1130    -0.6090    24.6620 na         1 YXT      -0.274500
     29 N29         53.3070     2.1240    20.6360 nd         1 YXT      -0.640100
     30 N31         52.5590     2.2740    18.4410 nv         1 YXT      -1.016200
     31 H101        52.6490     1.1920    25.1400 ha         1 YXT       0.137000
     32 H202        46.5790    -0.9120    27.9360 hc         1 YXT       0.039922
     33 H201        46.2370    -2.6460    27.8080 hc         1 YXT       0.039922
     34 H203        47.8550    -2.0980    28.2810 hc         1 YXT       0.039922
     35 H213        48.8770    -3.4910    26.3440 hc         1 YXT       0.039922
     36 H212        47.2320    -4.0370    25.9590 hc         1 YXT       0.039922
     37 H211        48.2420    -3.3110    24.6970 hc         1 YXT       0.039922
     38 H241        50.9090     3.4100    29.8890 ha         1 YXT       0.130000
     39 H261        51.6260     5.2450    26.0600 ha         1 YXT       0.130000
     40 H012        51.7470    -0.6170    18.3500 hc         1 YXT       0.038033
     41 H013        50.5540    -1.5850    17.4750 hc         1 YXT       0.038033
     42 H011        50.7470     0.1310    17.0820 hc         1 YXT       0.038033
     43 H032        47.4790    -0.0490    19.0050 hc         1 YXT       0.038033
     44 H033        48.2090     0.4430    17.4640 hc         1 YXT       0.038033
     45 H031        48.0690    -1.2780    17.8700 hc         1 YXT       0.038033
     46 H042        50.6900    -1.3360    20.5710 hc         1 YXT       0.038033
     47 H043        48.9630    -1.0550    20.8750 hc         1 YXT       0.038033
     48 H041        49.4740    -2.2920    19.7120 hc         1 YXT       0.038033
     49 H052        49.7970     1.9300    18.7060 h1         1 YXT       0.065700
     50 H051        49.0770     1.4360    20.2310 h1         1 YXT       0.065700
     51 H091        54.1860     1.9910    23.3040 ha         1 YXT       0.136000
     52 H192        45.7790    -0.5510    25.5040 hc         1 YXT       0.039922
     53 H193        46.4260    -1.5620    24.1980 hc         1 YXT       0.039922
     54 H191        45.3870    -2.2810    25.4420 hc         1 YXT       0.039922
     55 H231        50.0870     1.3600    28.7670 ha         1 YXT       0.125500
     56 H271        50.7720     3.2360    24.9170 ha         1 YXT       0.125500
     57 H171        48.9240    -1.1360    23.8190 hn         1 YXT       0.367000
     58 H311        53.5240     2.4190    18.1690 hn         1 YXT       0.484500
     59 H312        51.9570     1.8390    17.7550 hn         1 YXT       0.484500
     60 C05         49.8880     1.2060    19.5270 c3         1 YXT       0.088600
@<TRIPOS>BOND
     1     1    15 ar  
     2     1    16 ar  
     3     1    31 1   
     4     2    13 ar  
     5     2    16 ar  
     6     3    16 1   
     7     3    17 2   
     8     3    28 1   
     9     4    19 1   
    10     4    32 1   
    11     4    33 1   
    12     4    34 1   
    13     5    19 1   
    14     5    35 1   
    15     5    36 1   
    16     5    37 1   
    17     6    17 1   
    18     6    21 ar  
    19     6    23 ar  
    20     7    21 ar  
    21     7    22 ar  
    22     7    38 1   
    23     8    22 ar  
    24     8    23 ar  
    25     8    39 1   
    26     9    10 1   
    27     9    40 1   
    28     9    41 1   
    29     9    42 1   
    30    10    11 1   
    31    10    12 1   
    32    10    60 1   
    33    11    43 1   
    34    11    44 1   
    35    11    45 1   
    36    12    46 1   
    37    12    47 1   
    38    12    48 1   
    39    13    14 ar  
    40    13    26 1   
    41    14    15 ar  
    42    14    29 1   
    43    15    51 1   
    44    17    27 1   
    45    18    19 1   
    46    18    27 2   
    47    18    28 1   
    48    19    20 1   
    49    20    52 1   
    50    20    53 1   
    51    20    54 1   
    52    21    55 1   
    53    22    25 1   
    54    23    56 1   
    55    24    26 1   
    56    24    29 2   
    57    24    30 1   
    58    26    60 1   
    59    28    57 1   
    60    30    58 1   
    61    30    59 1   
    62    49    60 1   
    63    50    60 1   
@<TRIPOS>SUBSTRUCTURE
     1 YXT         1 TEMP              0 ****  ****    0 ROOT
