@<TRIPOS>MOLECULE
YXW
   51    53     1     0     0
SMALL
No Charge or Current Charge


@<TRIPOS>ATOM
      1 C4          44.1120    22.5730    82.6550 ca         1 YXW       0.135000
      2 C6          42.7440    20.7480    83.5020 ca         1 YXW      -0.124000
      3 C9          42.5130    24.1670    79.6640 c3         1 YXW       0.165600
      4 C13         45.0130    26.2070    77.3670 c6         1 YXW      -0.097900
      5 C20         41.8260    25.5980    73.6530 c          1 YXW       0.619700
      6 C18         43.8810    25.6110    75.1270 c3         1 YXW       0.115000
      7 C16         42.0800    25.8290    77.7630 c6         1 YXW      -0.070900
      8 O17         44.5330    27.8850    75.6810 oh         1 YXW      -0.671000
      9 C26         41.0100    28.0040    70.7510 ca         1 YXW      -0.198000
     10 C1          41.7990    20.9890    82.4910 ca         1 YXW      -0.087000
     11 C2          42.0060    22.0220    81.5580 ca         1 YXW      -0.179000
     12 C3          43.1690    22.8240    81.6340 ca         1 YXW       0.109100
     13 C5          43.9020    21.5410    83.5840 ca         1 YXW      -0.119000
     14 F7          45.2330    23.3270    82.7490 f          1 YXW      -0.171000
     15 O8          43.4150    23.8510    80.7390 os         1 YXW      -0.333100
     16 C10         43.0900    25.3580    78.8450 c6         1 YXW      -0.064700
     17 C12         44.4640    25.0170    78.2000 c6         1 YXW      -0.070900
     18 C14         44.0170    26.6820    76.2690 c6         1 YXW       0.161000
     19 C15         42.6460    27.0140    76.9340 c6         1 YXW      -0.097900
     20 O21         41.3170    24.6610    74.2520 o          1 YXW      -0.612100
     21 C22         41.1180    26.2950    72.5080 ca         1 YXW      -0.164600
     22 C23         39.8310    25.8540    72.1200 ca         1 YXW      -0.066000
     23 C24         39.1460    26.4770    71.0650 ca         1 YXW       0.128000
     24 C25         39.7340    27.5570    70.3740 ca         1 YXW       0.123100
     25 C27         41.6990    27.3820    71.8080 ca         1 YXW      -0.057000
     26 O28         39.0780    28.1750    69.3430 oh         1 YXW      -0.510100
     27 F29         37.9160    26.0300    70.7190 f          1 YXW      -0.163000
     28 H33         42.5800    19.9480    84.2210 ha         1 YXW       0.119000
     29 H35         41.5300    24.4530    80.0620 h1         1 YXW       0.038700
     30 H34         42.3830    23.3040    78.9990 h1         1 YXW       0.038700
     31 H39         45.9710    25.9250    76.9100 hc         1 YXW       0.047950
     32 H38         45.2370    27.0400    78.0490 hc         1 YXW       0.047950
     33 H45         43.4590    24.6840    75.5330 h1         1 YXW       0.065200
     34 H46         44.8860    25.3700    74.7560 h1         1 YXW       0.065200
     35 H43         41.1410    26.1400    78.2420 hc         1 YXW       0.053450
     36 H42         41.8190    24.9930    77.1000 hc         1 YXW       0.053450
     37 H44         44.6100    28.5420    76.4060 ho         1 YXW       0.445000
     38 H30         40.9030    20.3740    82.4300 ha         1 YXW       0.116000
     39 H31         41.2570    22.1840    80.7890 ha         1 YXW       0.120000
     40 H32         44.6360    21.3570    84.3650 ha         1 YXW       0.131000
     41 H11         43.2340    26.1790    79.5610 hc         1 YXW       0.059700
     42 H36         44.3740    24.1220    77.5690 hc         1 YXW       0.053450
     43 H37         45.1930    24.7630    78.9820 hc         1 YXW       0.053450
     44 H41         42.7580    27.8830    77.5980 hc         1 YXW       0.047950
     45 H40         41.9120    27.3130    76.1730 hc         1 YXW       0.047950
     46 H48         39.3540    25.0230    72.6350 ha         1 YXW       0.155000
     47 H50         42.6860    27.7590    72.0670 ha         1 YXW       0.118000
     48 H51         39.6470    28.8950    68.9970 ho         1 YXW       0.471000
     49 N19         43.0740    26.0710    73.9860 ns         1 YXW      -0.494900
     50 H49         41.4780    28.8360    70.2290 ha         1 YXW       0.120000
     51 H47         43.4130    26.8730    73.4730 hn         1 YXW       0.324500
@<TRIPOS>BOND
     1     1    12 ar  
     2     1    13 ar  
     3     1    14 1   
     4     2    10 ar  
     5     2    13 ar  
     6     2    28 1   
     7     3    15 1   
     8     3    16 1   
     9     3    29 1   
    10     3    30 1   
    11     4    17 1   
    12     4    18 1   
    13     4    31 1   
    14     4    32 1   
    15     5    20 2   
    16     5    21 1   
    17     5    49 1   
    18     6    18 1   
    19     6    33 1   
    20     6    34 1   
    21     6    49 1   
    22     7    16 1   
    23     7    19 1   
    24     7    35 1   
    25     7    36 1   
    26     8    18 1   
    27     8    37 1   
    28     9    24 ar  
    29     9    25 ar  
    30     9    50 1   
    31    10    11 ar  
    32    10    38 1   
    33    11    12 ar  
    34    11    39 1   
    35    12    15 1   
    36    13    40 1   
    37    16    17 1   
    38    16    41 1   
    39    17    42 1   
    40    17    43 1   
    41    18    19 1   
    42    19    44 1   
    43    19    45 1   
    44    21    22 ar  
    45    21    25 ar  
    46    22    23 ar  
    47    22    46 1   
    48    23    24 ar  
    49    23    27 1   
    50    24    26 1   
    51    25    47 1   
    52    26    48 1   
    53    49    51 1   
@<TRIPOS>SUBSTRUCTURE
     1 YXW         1 TEMP              0 ****  ****    0 ROOT
