@<TRIPOS>MOLECULE
YXW
   51    53     1     0     0
SMALL
abcg2


@<TRIPOS>ATOM
      1 C4          44.1750    22.3070    82.3470 ca         1 YXW       0.135000
      2 C6          42.7190    20.6270    83.2180 ca         1 YXW      -0.124000
      3 C9          42.5810    24.2270    79.7020 c3         1 YXW       0.165600
      4 C13         44.9280    26.3470    77.4500 c6         1 YXW      -0.097900
      5 C20         41.8000    25.7650    73.8120 c          1 YXW       0.619700
      6 C18         43.7860    25.8550    75.2760 c3         1 YXW       0.115000
      7 C16         42.0820    25.9010    77.9490 c6         1 YXW      -0.070900
      8 O17         44.3680    28.0500    75.8230 oh         1 YXW      -0.671000
      9 C26         41.2320    27.4880    70.4610 ca         1 YXW      -0.198000
     10 C1          41.7380    21.0430    82.3360 ca         1 YXW      -0.087000
     11 C2          41.9710    22.0970    81.4570 ca         1 YXW      -0.179000
     12 C3          43.1980    22.7530    81.4530 ca         1 YXW       0.109100
     13 C5          43.9540    21.2680    83.2190 ca         1 YXW      -0.119000
     14 F7          45.3690    22.9230    82.3390 f          1 YXW      -0.171000
     15 O8          43.5290    23.7870    80.6630 os         1 YXW      -0.333100
     16 C10         43.1310    25.4270    78.9560 c6         1 YXW      -0.064700
     17 C12         44.4510    25.1350    78.2460 c6         1 YXW      -0.070900
     18 C14         43.9040    26.8550    76.4320 c6         1 YXW       0.161000
     19 C15         42.5650    27.0960    77.1330 c6         1 YXW      -0.097900
     20 O21         41.2750    24.8310    74.4060 o          1 YXW      -0.612100
     21 C22         41.1670    26.3370    72.5860 ca         1 YXW      -0.164600
     22 C23         39.8050    26.1040    72.3930 ca         1 YXW      -0.066000
     23 C24         39.1830    26.5750    71.2640 ca         1 YXW       0.128000
     24 C25         39.8720    27.2710    70.2710 ca         1 YXW       0.123100
     25 C27         41.8690    27.0270    71.6030 ca         1 YXW      -0.057000
     26 O28         39.1810    27.6780    69.2000 oh         1 YXW      -0.510100
     27 F29         37.8720    26.3600    71.0860 f          1 YXW      -0.163000
     28 H33         42.5360    19.8090    83.9020 ha         1 YXW       0.119000
     29 H35         41.6410    24.5020    80.1960 h1         1 YXW       0.038700
     30 H34         42.3620    23.4170    78.9960 h1         1 YXW       0.038700
     31 H39         45.8710    26.1200    76.9440 hc         1 YXW       0.047950
     32 H38         45.1380    27.1620    78.1520 hc         1 YXW       0.047950
     33 H45         43.3890    24.9050    75.6250 h1         1 YXW       0.065200
     34 H46         44.7890    25.6570    74.8850 h1         1 YXW       0.065200
     35 H43         41.1610    26.1770    78.4710 hc         1 YXW       0.053450
     36 H42         41.8170    25.0740    77.2820 hc         1 YXW       0.053450
     37 H44         44.4310    28.7320    76.4990 ho         1 YXW       0.445000
     38 H30         40.7740    20.5510    82.3210 ha         1 YXW       0.116000
     39 H31         41.1830    22.3970    80.7800 ha         1 YXW       0.120000
     40 H32         44.7430    20.9620    83.8940 ha         1 YXW       0.131000
     41 H11         43.2990    26.2370    79.6780 hc         1 YXW       0.059700
     42 H36         44.3260    24.2670    77.5900 hc         1 YXW       0.053450
     43 H37         45.2230    24.8620    78.9690 hc         1 YXW       0.053450
     44 H41         42.6870    27.9530    77.8060 hc         1 YXW       0.047950
     45 H40         41.8050    27.3840    76.4020 hc         1 YXW       0.047950
     46 H48         39.2270    25.5590    73.1280 ha         1 YXW       0.155000
     47 H50         42.9350    27.1980    71.6850 ha         1 YXW       0.118000
     48 H51         39.7560    28.1430    68.5810 ho         1 YXW       0.471000
     49 N19         42.9560    26.3310    74.1960 ns         1 YXW      -0.494900
     50 H49         41.8000    28.0130    69.7020 ha         1 YXW       0.120000
     51 H47         43.2730    27.1610    73.7230 hn         1 YXW       0.324500
@<TRIPOS>BOND
     1     1    12 ar  
     2     1    13 ar  
     3     1    14 1   
     4     2    10 ar  
     5     2    13 ar  
     6     2    28 1   
     7     3    15 1   
     8     3    16 1   
     9     3    29 1   
    10     3    30 1   
    11     4    17 1   
    12     4    18 1   
    13     4    31 1   
    14     4    32 1   
    15     5    20 2   
    16     5    21 1   
    17     5    49 1   
    18     6    18 1   
    19     6    33 1   
    20     6    34 1   
    21     6    49 1   
    22     7    16 1   
    23     7    19 1   
    24     7    35 1   
    25     7    36 1   
    26     8    18 1   
    27     8    37 1   
    28     9    24 ar  
    29     9    25 ar  
    30     9    50 1   
    31    10    11 ar  
    32    10    38 1   
    33    11    12 ar  
    34    11    39 1   
    35    12    15 1   
    36    13    40 1   
    37    16    17 1   
    38    16    41 1   
    39    17    42 1   
    40    17    43 1   
    41    18    19 1   
    42    19    44 1   
    43    19    45 1   
    44    21    22 ar  
    45    21    25 ar  
    46    22    23 ar  
    47    22    46 1   
    48    23    24 ar  
    49    23    27 1   
    50    24    26 1   
    51    25    47 1   
    52    26    48 1   
    53    49    51 1   
@<TRIPOS>SUBSTRUCTURE
     1 YXW         1 TEMP              0 ****  ****    0 ROOT
