@<TRIPOS>MOLECULE
YXY
   22    22     1     0     0
SMALL
abcg2


@<TRIPOS>ATOM
      1 C10         -3.6230   -26.5760    30.2470 c6         1 YXY      -0.126900
      2 N01          0.0590   -26.4230    29.3520 nt         1 YXY      -0.612000
      3 C02         -0.9420   -25.6800    28.8500 c          1 YXY       0.604100
      4 O03         -1.1770   -25.6290    27.6510 o          1 YXY      -0.603100
      5 C04         -1.7420   -24.9050    29.8930 c6         1 YXY      -0.147700
      6 C05         -2.7520   -23.9410    29.2710 c6         1 YXY      -0.059900
      7 C06         -3.9730   -24.6380    28.6700 c6         1 YXY      -0.126900
      8 C07         -4.6070   -25.6010    29.6430 c6         1 YXY       0.180000
      9 F08         -5.2240   -24.9020    30.6570 f          1 YXY      -0.126000
     10 F09         -5.6250   -26.2820    29.0220 f          1 YXY      -0.126000
     11 C11         -2.4510   -25.8370    30.8880 c6         1 YXY      -0.059900
     12 H1          -4.1270   -27.2040    30.9850 hc         1 YXY       0.075200
     13 H2          -3.2630   -27.2390    29.4550 hc         1 YXY       0.075200
     14 H3           0.6630   -26.9440    28.7360 hn         1 YXY       0.312500
     15 H4           0.3020   -26.4070    30.3270 hn         1 YXY       0.312500
     16 H5          -1.0150   -24.3130    30.4600 hc         1 YXY       0.061700
     17 H6          -2.2780   -23.3280    28.5040 hc         1 YXY       0.053700
     18 H7          -3.0760   -23.2500    30.0530 hc         1 YXY       0.053700
     19 H8          -4.7120   -23.8980    28.3520 hc         1 YXY       0.075200
     20 H9          -3.6770   -25.2010    27.7850 hc         1 YXY       0.075200
     21 H10         -1.7600   -26.5620    31.3200 hc         1 YXY       0.053700
     22 H11         -2.8090   -25.2340    31.7260 hc         1 YXY       0.053700
@<TRIPOS>BOND
     1     1     8 1   
     2     1    11 1   
     3     1    12 1   
     4     1    13 1   
     5     2     3 1   
     6     2    14 1   
     7     2    15 1   
     8     3     4 2   
     9     3     5 1   
    10     5     6 1   
    11     5    11 1   
    12     5    16 1   
    13     6     7 1   
    14     6    17 1   
    15     6    18 1   
    16     7     8 1   
    17     7    19 1   
    18     7    20 1   
    19     8     9 1   
    20     8    10 1   
    21    11    21 1   
    22    11    22 1   
@<TRIPOS>SUBSTRUCTURE
     1 YXY         1 TEMP              0 ****  ****    0 ROOT
