@<TRIPOS>MOLECULE
YXY
   22    22     1     0     0
SMALL
No Charge or Current Charge


@<TRIPOS>ATOM
      1 C10         -3.8930   -26.6150    30.2640 c6         1 YXY      -0.126900
      2 N01          0.4300   -25.8390    29.1090 nt         1 YXY      -0.612000
      3 C02         -0.9080   -25.9630    28.9680 c          1 YXY       0.604100
      4 O03         -1.3610   -26.6680    28.0840 o          1 YXY      -0.603100
      5 C04         -1.7870   -25.1760    29.9700 c6         1 YXY      -0.147700
      6 C05         -2.6260   -24.0350    29.3280 c6         1 YXY      -0.059900
      7 C06         -3.9110   -24.5860    28.6540 c6         1 YXY      -0.126900
      8 C07         -4.7280   -25.4760    29.6260 c6         1 YXY       0.180000
      9 F08         -5.2800   -24.6750    30.6420 f          1 YXY      -0.126000
     10 F09         -5.8160   -26.0350    28.9340 f          1 YXY      -0.126000
     11 C11         -2.6080   -26.0700    30.9420 c6         1 YXY      -0.059900
     12 H1          -4.5020   -27.1590    30.9990 hc         1 YXY       0.075200
     13 H2          -3.6230   -27.3460    29.4900 hc         1 YXY       0.075200
     14 H3           1.0400   -26.3350    28.4770 hn         1 YXY       0.312500
     15 H4           0.8120   -25.2570    29.8400 hn         1 YXY       0.312500
     16 H5          -1.0620   -24.6590    30.6140 hc         1 YXY       0.061700
     17 H6          -2.0210   -23.4800    28.5980 hc         1 YXY       0.053700
     18 H7          -2.9090   -23.3110    30.1050 hc         1 YXY       0.053700
     19 H8          -4.5330   -23.7540    28.2980 hc         1 YXY       0.075200
     20 H9          -3.6420   -25.1700    27.7640 hc         1 YXY       0.075200
     21 H10         -1.9900   -26.9020    31.3110 hc         1 YXY       0.053700
     22 H11         -2.8900   -25.4820    31.8270 hc         1 YXY       0.053700
@<TRIPOS>BOND
     1     1     8 1   
     2     1    11 1   
     3     1    12 1   
     4     1    13 1   
     5     2     3 1   
     6     2    14 1   
     7     2    15 1   
     8     3     4 2   
     9     3     5 1   
    10     5     6 1   
    11     5    11 1   
    12     5    16 1   
    13     6     7 1   
    14     6    17 1   
    15     6    18 1   
    16     7     8 1   
    17     7    19 1   
    18     7    20 1   
    19     8     9 1   
    20     8    10 1   
    21    11    21 1   
    22    11    22 1   
@<TRIPOS>SUBSTRUCTURE
     1 YXY         1 TEMP              0 ****  ****    0 ROOT
