@<TRIPOS>MOLECULE
YY1
   12    12     1     0     0
SMALL
bcc


@<TRIPOS>ATOM
      1 CAG          2.8940    -0.7100    -0.0030 c3         1 YY1      -0.128400
      2 CAE          1.5520    -0.0850    -0.0480 cc         1 YY1       0.399800
      3 NAA          0.3900    -0.7600     0.0850 na         1 YY1      -0.441700
      4 NAD          1.2900     1.1850    -0.2130 nd         1 YY1      -0.366000
      5 NAC         -0.0540     1.3480    -0.1770 nd         1 YY1      -0.301000
      6 CAB         -0.5870     0.1750     0.0050 cc         1 YY1       0.459800
      7 SAF         -2.2990    -0.1710     0.0380 sh         1 YY1      -0.319100
      8 H1           3.0730    -1.1840     0.9630 hc         1 YY1       0.062367
      9 H2           3.0000    -1.4740    -0.7730 hc         1 YY1       0.062367
     10 H3           3.6560     0.0490    -0.1600 hc         1 YY1       0.062367
     11 H4           0.2690    -1.7540     0.2110 hn         1 YY1       0.314700
     12 H5          -2.3880    -0.4730     1.3400 hs         1 YY1       0.194800
@<TRIPOS>BOND
     1     1     2 1   
     2     1     8 1   
     3     1     9 1   
     4     1    10 1   
     5     2     3 1   
     6     2     4 2   
     7     3     6 1   
     8     3    11 1   
     9     4     5 1   
    10     5     6 2   
    11     6     7 1   
    12     7    12 1   
@<TRIPOS>SUBSTRUCTURE
     1 YY1         1 TEMP              0 ****  ****    0 ROOT
