@<TRIPOS>MOLECULE
YY1
   12    12     1     0     0
SMALL
No Charge or Current Charge


@<TRIPOS>ATOM
      1 CAG          2.8680    -0.7420     0.0030 c3         1 YY1      -0.128400
      2 CAE          1.5430    -0.0480    -0.0550 cc         1 YY1       0.399800
      3 NAA          0.3480    -0.6240     0.2650 na         1 YY1      -0.492000
      4 NAD          1.3350     1.2040    -0.4190 nd         1 YY1      -0.366000
      5 NAC         -0.0180     1.4460    -0.3340 nd         1 YY1      -0.301000
      6 CAB         -0.6010     0.3360     0.0800 cc         1 YY1       0.459800
      7 SAF         -2.3270     0.1030     0.3560 sh         1 YY1      -0.319100
      8 H1           3.0790    -1.0880     1.0210 hc         1 YY1       0.062367
      9 H2           2.8790    -1.6110    -0.6640 hc         1 YY1       0.062367
     10 H3           3.6790    -0.0700    -0.3010 hc         1 YY1       0.062367
     11 H4           0.2020    -1.5720     0.5770 hn         1 YY1       0.365000
     12 H5          -2.1910    -1.1860     0.7400 hs         1 YY1       0.194800
@<TRIPOS>BOND
     1     1     2 1   
     2     1     8 1   
     3     1     9 1   
     4     1    10 1   
     5     2     3 1   
     6     2     4 2   
     7     3     6 1   
     8     3    11 1   
     9     4     5 1   
    10     5     6 2   
    11     6     7 1   
    12     7    12 1   
@<TRIPOS>SUBSTRUCTURE
     1 YY1         1 TEMP              0 ****  ****    0 ROOT
