@<TRIPOS>MOLECULE
YY2
   41    41     1     0     0
SMALL
abcg2


@<TRIPOS>ATOM
      1 CAQ         -3.2800   -11.0760   -15.6290 c3         1 YY2      -0.101767
      2 CAP         -3.6080    -9.6650   -15.1290 c3         1 YY2       0.134400
      3 CAR         -4.9100    -9.6940   -14.3260 c3         1 YY2      -0.101767
      4 CAS         -2.4710    -9.1140   -14.2610 c3         1 YY2      -0.101767
      5 NAO         -3.8520    -8.7640   -16.2730 ns         1 YY2      -0.487900
      6 CAM         -2.9960    -8.4440   -17.2460 c          1 YY2       0.591100
      7 OAN         -1.8630    -8.9050   -17.4020 o          1 YY2      -0.627100
      8 CAL         -3.4920    -7.4020   -18.2430 c3         1 YY2       0.072600
      9 OAG         -4.8840    -7.0950   -18.0810 os         1 YY2      -0.353100
     10 CAF         -5.2180    -5.7710   -17.9820 ca         1 YY2       0.071100
     11 CAE         -5.5170    -5.0070   -19.1000 ca         1 YY2       0.138000
     12 CL1         -5.3970    -5.7430   -20.6790 cl         1 YY2      -0.186000
     13 CAD         -5.9150    -3.6780   -18.9910 ca         1 YY2      -0.130000
     14 CAC         -6.0120    -3.0940   -17.7360 ca         1 YY2      -0.041300
     15 CAK         -6.4290    -1.6490   -17.5980 c3         1 YY2       0.194100
     16 NAT         -7.6120    -1.5140   -16.7350 n8         1 YY2      -1.002200
     17 CAB         -5.7150    -3.8470   -16.5970 ca         1 YY2      -0.161000
     18 CAA         -5.3220    -5.1740   -16.7100 ca         1 YY2       0.127100
     19 OAH         -5.0130    -5.9810   -15.6670 os         1 YY2      -0.349100
     20 CAI         -5.0780    -5.4410   -14.3460 c3         1 YY2       0.146900
     21 H1          -3.1640   -11.7460   -14.7760 hc         1 YY2       0.043922
     22 H2          -4.0880   -11.4530   -16.2580 hc         1 YY2       0.043922
     23 H3          -2.3570   -11.0820   -16.2060 hc         1 YY2       0.043922
     24 H4          -4.7930   -10.3430   -13.4580 hc         1 YY2       0.043922
     25 H5          -5.1720    -8.6950   -13.9740 hc         1 YY2       0.043922
     26 H6          -5.7320   -10.0770   -14.9340 hc         1 YY2       0.043922
     27 H7          -2.3180    -9.7630   -13.3970 hc         1 YY2       0.043922
     28 H8          -1.5420    -9.0610   -14.8260 hc         1 YY2       0.043922
     29 H9          -2.7210    -8.1140   -13.9010 hc         1 YY2       0.043922
     30 H10         -4.6950    -8.2070   -16.2490 hn         1 YY2       0.336500
     31 H11         -3.3270    -7.7930   -19.2480 h1         1 YY2       0.073200
     32 H12         -2.8860    -6.5030   -18.1170 h1         1 YY2       0.073200
     33 H13         -6.1470    -3.1110   -19.8830 ha         1 YY2       0.131000
     34 H14         -6.5730    -1.2300   -18.6000 h1         1 YY2       0.040700
     35 H15         -5.6170    -1.0860   -17.1290 h1         1 YY2       0.040700
     36 H16         -7.8250    -0.5290   -16.6070 hn         1 YY2       0.400000
     37 H17         -8.4180    -1.9230   -17.1980 hn         1 YY2       0.400000
     38 H19         -5.8010    -3.3840   -15.6250 ha         1 YY2       0.137000
     39 H20         -4.7820    -6.2500   -13.6840 h1         1 YY2       0.047367
     40 H21         -4.3900    -4.6010   -14.2350 h1         1 YY2       0.047367
     41 H22         -6.0940    -5.1180   -14.1070 h1         1 YY2       0.047367
@<TRIPOS>BOND
     1     1     2 1   
     2     1    21 1   
     3     1    22 1   
     4     1    23 1   
     5     2     3 1   
     6     2     4 1   
     7     2     5 1   
     8     3    24 1   
     9     3    25 1   
    10     3    26 1   
    11     4    27 1   
    12     4    28 1   
    13     4    29 1   
    14     5     6 1   
    15     5    30 1   
    16     6     7 2   
    17     6     8 1   
    18     8     9 1   
    19     8    31 1   
    20     8    32 1   
    21     9    10 1   
    22    10    11 ar  
    23    10    18 ar  
    24    11    12 1   
    25    11    13 ar  
    26    13    14 ar  
    27    13    33 1   
    28    14    15 1   
    29    14    17 ar  
    30    15    16 1   
    31    15    34 1   
    32    15    35 1   
    33    16    36 1   
    34    16    37 1   
    35    17    18 ar  
    36    17    38 1   
    37    18    19 1   
    38    19    20 1   
    39    20    39 1   
    40    20    40 1   
    41    20    41 1   
@<TRIPOS>SUBSTRUCTURE
     1 YY2         1 TEMP              0 ****  ****    0 ROOT
