@<TRIPOS>MOLECULE
YY2
   41    41     1     0     0
SMALL
No Charge or Current Charge


@<TRIPOS>ATOM
      1 CAQ         -3.9880   -11.0090   -15.8620 c3         1 YY2      -0.101767
      2 CAP         -3.6910    -9.6780   -15.1270 c3         1 YY2       0.134400
      3 CAR         -4.8530    -9.3650   -14.1570 c3         1 YY2      -0.101767
      4 CAS         -2.3720    -9.7840   -14.3210 c3         1 YY2      -0.101767
      5 NAO         -3.6210    -8.5660   -16.0820 ns         1 YY2      -0.487900
      6 CAM         -2.7470    -8.4060   -17.1420 c          1 YY2       0.591100
      7 OAN         -1.8700    -9.2130   -17.4230 o          1 YY2      -0.627100
      8 CAL         -2.9570    -7.0990   -17.9320 c3         1 YY2       0.072600
      9 OAG         -4.3570    -6.8950   -18.2500 os         1 YY2      -0.353100
     10 CAF         -4.9500    -5.6610   -18.0600 ca         1 YY2       0.071100
     11 CAE         -5.5400    -5.0050   -19.1610 ca         1 YY2       0.138000
     12 Cl1         -5.4990    -5.7320   -20.7690 cl         1 YY2      -0.186000
     13 CAD         -6.1550    -3.7550   -18.9960 ca         1 YY2      -0.130000
     14 CAC         -6.2030    -3.1460   -17.7290 ca         1 YY2      -0.041300
     15 CAK         -6.8700    -1.7860   -17.5540 c3         1 YY2       0.194100
     16 NAT         -8.2700    -1.9180   -17.1000 n8         1 YY2      -1.002200
     17 CAB         -5.6360    -3.8070   -16.6220 ca         1 YY2      -0.161000
     18 CAA         -5.0130    -5.0670   -16.7750 ca         1 YY2       0.127100
     19 OAH         -4.4870    -5.7540   -15.6920 os         1 YY2      -0.349100
     20 CAI         -4.5020    -5.2230   -14.3540 c3         1 YY2       0.146900
     21 H1          -4.1390   -11.8230   -15.1430 hc         1 YY2       0.043922
     22 H2          -4.8960   -10.9240   -16.4710 hc         1 YY2       0.043922
     23 H3          -3.1630   -11.3010   -16.5210 hc         1 YY2       0.043922
     24 H4          -4.9680   -10.1630   -13.4120 hc         1 YY2       0.043922
     25 H5          -4.6750    -8.4260   -13.6190 hc         1 YY2       0.043922
     26 H6          -5.8020    -9.2700   -14.6990 hc         1 YY2       0.043922
     27 H7          -2.4550   -10.5500   -13.5410 hc         1 YY2       0.043922
     28 H8          -1.5270   -10.0570   -14.9630 hc         1 YY2       0.043922
     29 H9          -2.1350    -8.8300   -13.8340 hc         1 YY2       0.043922
     30 H10         -4.2810    -7.8040   -15.9640 hn         1 YY2       0.336500
     31 H11         -2.3560    -7.1450   -18.8480 h1         1 YY2       0.073200
     32 H12         -2.5670    -6.2820   -17.3120 h1         1 YY2       0.073200
     33 H13         -6.5970    -3.2590   -19.8570 ha         1 YY2       0.131000
     34 H14         -6.8560    -1.2400   -18.5070 h1         1 YY2       0.040700
     35 H15         -6.3120    -1.1930   -16.8160 h1         1 YY2       0.040700
     36 H16         -8.7020    -0.9870   -17.0790 hn         1 YY2       0.400000
     37 H17         -8.8030    -2.4180   -17.8210 hn         1 YY2       0.400000
     38 H19         -5.7000    -3.3290   -15.6490 ha         1 YY2       0.137000
     39 H20         -4.0240    -5.9270   -13.6620 h1         1 YY2       0.047367
     40 H21         -3.9550    -4.2740   -14.3040 h1         1 YY2       0.047367
     41 H22         -5.5310    -5.0570   -14.0120 h1         1 YY2       0.047367
@<TRIPOS>BOND
     1     1     2 1   
     2     1    21 1   
     3     1    22 1   
     4     1    23 1   
     5     2     3 1   
     6     2     4 1   
     7     2     5 1   
     8     3    24 1   
     9     3    25 1   
    10     3    26 1   
    11     4    27 1   
    12     4    28 1   
    13     4    29 1   
    14     5     6 1   
    15     5    30 1   
    16     6     7 2   
    17     6     8 1   
    18     8     9 1   
    19     8    31 1   
    20     8    32 1   
    21     9    10 1   
    22    10    11 ar  
    23    10    18 ar  
    24    11    12 1   
    25    11    13 ar  
    26    13    14 ar  
    27    13    33 1   
    28    14    15 1   
    29    14    17 ar  
    30    15    16 1   
    31    15    34 1   
    32    15    35 1   
    33    16    36 1   
    34    16    37 1   
    35    17    18 ar  
    36    17    38 1   
    37    18    19 1   
    38    19    20 1   
    39    20    39 1   
    40    20    40 1   
    41    20    41 1   
@<TRIPOS>SUBSTRUCTURE
     1 YY2         1 TEMP              0 ****  ****    0 ROOT
