@<TRIPOS>MOLECULE
YY3
   70    73     1     0     0
SMALL
No Charge or Current Charge


@<TRIPOS>ATOM
      1 C13         -7.0260     0.3840     2.5670 c3         1 YY3       0.150600
      2 N2          -7.7580    -0.1560     1.3960 n3         1 YY3      -0.717600
      3 C12         -9.0490     0.5380     1.1900 c3         1 YY3       0.150600
      4 C11         -6.9430    -0.1960     0.1480 c3         1 YY3       0.163800
      5 C10         -5.6880    -1.1190     0.1820 c3         1 YY3       0.174800
      6 N1          -4.8240    -1.0520    -1.0300 nh         1 YY3      -0.782400
      7 C28         -5.3940    -1.5850    -2.2880 c3         1 YY3       0.167100
      8 C3          -2.5770    -1.9680    -1.2380 ca         1 YY3      -0.160000
      9 C4          -1.1770    -1.8560    -1.0980 ca         1 YY3       0.056100
     10 O1          -0.3250    -2.9050    -1.4250 os         1 YY3      -0.359100
     11 C14         -0.8060    -4.1650    -1.9290 c3         1 YY3       0.155900
     12 C2          -3.4210    -0.8990    -0.8890 ca         1 YY3       0.158000
     13 C1          -2.8620     0.2970    -0.3770 ca         1 YY3       0.003000
     14 N           -3.7460     1.3620    -0.0450 ns         1 YY3      -0.137000
     15 C7          -3.5790     2.5190     0.6970 c          1 YY3       0.606300
     16 O           -2.5480     2.8190     1.2870 o          1 YY3      -0.584100
     17 C8          -4.8140     3.3600     0.7830 ce         1 YY3      -0.299200
     18 C9          -4.9810     4.3890     1.6510 c2         1 YY3      -0.235000
     19 C6          -1.4610     0.4100    -0.2450 ca         1 YY3      -0.145000
     20 C5          -0.6130    -0.6490    -0.6150 ca         1 YY3       0.329000
     21 N3           0.7850    -0.5690    -0.4870 nu         1 YY3      -0.923900
     22 C15          1.7250     0.4520    -0.4510 ca         1 YY3       0.388900
     23 N5           2.9790     0.0400    -0.2100 nb         1 YY3      -0.259000
     24 N4           1.3260     1.7160    -0.6750 nb         1 YY3      -0.228000
     25 C16          2.2810     2.6620    -0.6410 ca         1 YY3       0.149900
     26 C17          3.6230     2.3360    -0.3910 ca         1 YY3      -0.284000
     27 C18          3.9440     0.9810    -0.1760 ca         1 YY3       0.276800
     28 C19          5.3260     0.5600     0.0840 cc         1 YY3      -0.236000
     29 C26          5.8330    -0.6650     0.6450 ca         1 YY3      -0.052800
     30 C25          5.1830    -1.7420     1.2700 ca         1 YY3      -0.045000
     31 C24          5.9740    -2.8120     1.7380 ca         1 YY3      -0.142000
     32 C23          7.3790    -2.7850     1.5820 ca         1 YY3      -0.095000
     33 C22          8.0050    -1.6850     0.9590 ca         1 YY3      -0.127000
     34 C21          7.1960    -0.6310     0.5000 ca         1 YY3      -0.064200
     35 N6           7.5880     0.5420    -0.1320 na         1 YY3      -0.078700
     36 C27          8.9780     0.8720    -0.4800 c3         1 YY3       0.062900
     37 C20          6.4130     1.2720    -0.4160 cd         1 YY3      -0.116100
     38 H1          -6.6820     1.4100     2.3760 h1         1 YY3       0.031033
     39 H2          -7.6740     0.4010     3.4530 h1         1 YY3       0.031033
     40 H3          -6.1530    -0.2330     2.8120 h1         1 YY3       0.031033
     41 H5          -8.8900     1.5960     0.9400 h1         1 YY3       0.031033
     42 H6          -9.6150     0.0730     0.3720 h1         1 YY3       0.031033
     43 H7          -9.6670     0.4880     2.0970 h1         1 YY3       0.031033
     44 H8          -7.5760    -0.5380    -0.6820 h1         1 YY3       0.033200
     45 H9          -6.6160     0.8210    -0.1050 h1         1 YY3       0.033200
     46 H10         -5.0820    -0.8560     1.0580 h1         1 YY3       0.046200
     47 H11         -6.0230    -2.1540     0.3340 h1         1 YY3       0.046200
     48 H12         -6.2960    -1.0270    -2.5710 h1         1 YY3       0.033033
     49 H13         -4.6720    -1.4890    -3.1100 h1         1 YY3       0.033033
     50 H14         -5.6540    -2.6460    -2.1750 h1         1 YY3       0.033033
     51 H15         -3.0280    -2.8840    -1.6050 ha         1 YY3       0.118000
     52 H16         -1.4730    -4.6470    -1.2020 h1         1 YY3       0.039367
     53 H17         -1.3520    -4.0260    -2.8710 h1         1 YY3       0.039367
     54 H18          0.0340    -4.8440    -2.1200 h1         1 YY3       0.039367
     55 H19         -4.6760     1.2340    -0.4190 hn         1 YY3       0.177000
     56 H20         -5.6330     3.0670     0.1280 ha         1 YY3       0.177000
     57 H22         -4.1940     4.6960     2.3440 ha         1 YY3       0.175000
     58 H23         -5.9120     4.9570     1.6960 ha         1 YY3       0.175000
     59 H25         -1.0240     1.3160     0.1490 ha         1 YY3       0.189000
     60 H26          1.2190    -1.4880    -0.5760 hn         1 YY3       0.524000
     61 H27          1.9670     3.6900    -0.8140 h4         1 YY3       0.023100
     62 H28          4.3780     3.1140    -0.3570 ha         1 YY3       0.126000
     63 H29          4.1040    -1.7560     1.3990 ha         1 YY3       0.136000
     64 H30          5.5000    -3.6610     2.2250 ha         1 YY3       0.110000
     65 H31          7.9810    -3.6140     1.9470 ha         1 YY3       0.109000
     66 H32          9.0860    -1.6590     0.8420 ha         1 YY3       0.112000
     67 H33          9.3790     0.1070    -1.1550 h1         1 YY3       0.051700
     68 H34          9.0140     1.8490    -0.9780 h1         1 YY3       0.051700
     69 H35          9.5860     0.9100     0.4320 h1         1 YY3       0.051700
     70 H36          6.4440     2.2090    -0.9650 h4         1 YY3       0.213000
@<TRIPOS>BOND
     1     1     2 1   
     2     1    38 1   
     3     1    39 1   
     4     1    40 1   
     5     2     3 1   
     6     2     4 1   
     7     3    41 1   
     8     3    42 1   
     9     3    43 1   
    10     4     5 1   
    11     4    44 1   
    12     4    45 1   
    13     5     6 1   
    14     5    46 1   
    15     5    47 1   
    16     6     7 1   
    17     6    12 1   
    18     7    48 1   
    19     7    49 1   
    20     7    50 1   
    21     8     9 ar  
    22     8    12 ar  
    23     8    51 1   
    24     9    10 1   
    25     9    20 ar  
    26    10    11 1   
    27    11    52 1   
    28    11    53 1   
    29    11    54 1   
    30    12    13 ar  
    31    13    14 1   
    32    13    19 ar  
    33    14    15 1   
    34    14    55 1   
    35    15    16 2   
    36    15    17 1   
    37    17    18 2   
    38    17    56 1   
    39    18    57 1   
    40    18    58 1   
    41    19    20 ar  
    42    19    59 1   
    43    20    21 1   
    44    21    22 1   
    45    21    60 1   
    46    22    23 ar  
    47    22    24 ar  
    48    23    27 ar  
    49    24    25 ar  
    50    25    26 ar  
    51    25    61 1   
    52    26    27 ar  
    53    26    62 1   
    54    27    28 1   
    55    28    29 1   
    56    28    37 2   
    57    29    30 ar  
    58    29    34 ar  
    59    30    31 ar  
    60    30    63 1   
    61    31    32 ar  
    62    31    64 1   
    63    32    33 ar  
    64    32    65 1   
    65    33    34 ar  
    66    33    66 1   
    67    34    35 1   
    68    35    36 1   
    69    35    37 1   
    70    36    67 1   
    71    36    68 1   
    72    36    69 1   
    73    37    70 1   
@<TRIPOS>SUBSTRUCTURE
     1 YY3         1 TEMP              0 ****  ****    0 ROOT
