@<TRIPOS>MOLECULE
YY3
   70    73     1     0     0
SMALL
abcg2


@<TRIPOS>ATOM
      1 C13         -7.1080    -0.4160     2.8350 c3         1 YY3       0.150600
      2 N2          -7.6040    -1.0270     1.6190 n3         1 YY3      -0.717600
      3 C12         -9.0410    -0.8830     1.5290 c3         1 YY3       0.150600
      4 C11         -6.9510    -0.5170     0.4290 c3         1 YY3       0.163800
      5 C10         -5.5020    -0.9780     0.3260 c3         1 YY3       0.174800
      6 N1          -4.8420    -0.4580    -0.8680 nh         1 YY3      -0.782400
      7 C28         -5.3100    -1.0490    -2.1110 c3         1 YY3       0.167100
      8 C3          -2.6680    -1.6190    -0.7840 ca         1 YY3      -0.160000
      9 C4          -1.2950    -1.5840    -0.6390 ca         1 YY3       0.056100
     10 O1          -0.4930    -2.6710    -0.6620 os         1 YY3      -0.359100
     11 C14         -1.0860    -3.9440    -0.8170 c3         1 YY3       0.155900
     12 C2          -3.4240    -0.4510    -0.7420 ca         1 YY3       0.158000
     13 C1          -2.7830     0.7740    -0.5480 ca         1 YY3       0.003000
     14 N           -3.6150     1.8930    -0.5250 ns         1 YY3      -0.137000
     15 C7          -3.3320     3.1890    -0.2640 c          1 YY3       0.606300
     16 O           -2.2200     3.6140     0.0090 o          1 YY3      -0.584100
     17 C8          -4.5300     4.0660    -0.3440 ce         1 YY3      -0.299200
     18 C9          -4.4550     5.3710    -0.1080 c2         1 YY3      -0.235000
     19 C6          -1.3950     0.8210    -0.4010 ca         1 YY3      -0.145000
     20 C5          -0.6420    -0.3470    -0.4460 ca         1 YY3       0.329000
     21 N3           0.7380    -0.4060    -0.2990 nu         1 YY3      -0.923900
     22 C15          1.6810     0.5750    -0.2240 ca         1 YY3       0.388900
     23 N5           2.9280     0.1090    -0.0990 nb         1 YY3      -0.259000
     24 N4           1.3270     1.8510    -0.2810 nb         1 YY3      -0.228000
     25 C16          2.3260     2.7290    -0.2080 ca         1 YY3       0.149900
     26 C17          3.6450     2.3680    -0.0820 ca         1 YY3      -0.284000
     27 C18          3.9180     0.9900    -0.0280 ca         1 YY3       0.276800
     28 C19          5.2640     0.4750     0.1040 cc         1 YY3      -0.236000
     29 C26          5.6920    -0.8960     0.2010 ca         1 YY3      -0.052800
     30 C25          5.0470    -2.1380     0.2090 ca         1 YY3      -0.045000
     31 C24          5.8090    -3.2860     0.3220 ca         1 YY3      -0.142000
     32 C23          7.2060    -3.2290     0.4290 ca         1 YY3      -0.095000
     33 C22          7.8710    -2.0180     0.4240 ca         1 YY3      -0.127000
     34 C21          7.0980    -0.8660     0.3090 ca         1 YY3      -0.064200
     35 N6           7.5010     0.4460     0.2800 na         1 YY3      -0.078700
     36 C27          8.8710     0.8930     0.3620 c3         1 YY3       0.062900
     37 C20          6.4120     1.2360     0.1590 cd         1 YY3      -0.116100
     38 H1          -7.2630     0.6750     2.8630 h1         1 YY3       0.031033
     39 H2          -7.6190    -0.8460     3.6970 h1         1 YY3       0.031033
     40 H3          -6.0430    -0.6030     2.9670 h1         1 YY3       0.031033
     41 H5          -9.3730     0.1650     1.4680 h1         1 YY3       0.031033
     42 H6          -9.4190    -1.4030     0.6470 h1         1 YY3       0.031033
     43 H7          -9.5160    -1.3270     2.4060 h1         1 YY3       0.031033
     44 H8          -7.5090    -0.8840    -0.4350 h1         1 YY3       0.033200
     45 H9          -6.9830     0.5860     0.3770 h1         1 YY3       0.033200
     46 H10         -4.9390    -0.6140     1.1870 h1         1 YY3       0.046200
     47 H11         -5.4670    -2.0770     0.3660 h1         1 YY3       0.046200
     48 H12         -6.3720    -0.8490    -2.2490 h1         1 YY3       0.033033
     49 H13         -4.7820    -0.6000    -2.9510 h1         1 YY3       0.033033
     50 H14         -5.1670    -2.1360    -2.1590 h1         1 YY3       0.033033
     51 H15         -3.1810    -2.5610    -0.9340 ha         1 YY3       0.118000
     52 H16         -1.7910    -4.1640    -0.0110 h1         1 YY3       0.039367
     53 H17         -1.6050    -4.0340    -1.7750 h1         1 YY3       0.039367
     54 H18         -0.2770    -4.6690    -0.7850 h1         1 YY3       0.039367
     55 H19         -4.5770     1.6370    -0.7180 hn         1 YY3       0.177000
     56 H20         -5.4810     3.6150    -0.6050 ha         1 YY3       0.177000
     57 H22         -3.5210     5.8510     0.1540 ha         1 YY3       0.175000
     58 H23         -5.3310     6.0010    -0.1700 ha         1 YY3       0.175000
     59 H25         -0.8910     1.7590    -0.2560 ha         1 YY3       0.189000
     60 H26          1.1300    -1.3340    -0.2680 hn         1 YY3       0.524000
     61 H27          2.0470     3.7760    -0.2540 h4         1 YY3       0.023100
     62 H28          4.4210     3.1170    -0.0280 ha         1 YY3       0.126000
     63 H29          3.9720    -2.1960     0.1290 ha         1 YY3       0.136000
     64 H30          5.3180    -4.2510     0.3290 ha         1 YY3       0.110000
     65 H31          7.7730    -4.1470     0.5180 ha         1 YY3       0.109000
     66 H32          8.9500    -1.9730     0.5060 ha         1 YY3       0.112000
     67 H33          9.4590     0.4800    -0.4570 h1         1 YY3       0.051700
     68 H34          8.8970     1.9770     0.2950 h1         1 YY3       0.051700
     69 H35          9.3190     0.5900     1.3070 h1         1 YY3       0.051700
     70 H36          6.5260     2.3080     0.1170 h4         1 YY3       0.213000
@<TRIPOS>BOND
     1     1     2 1   
     2     1    38 1   
     3     1    39 1   
     4     1    40 1   
     5     2     3 1   
     6     2     4 1   
     7     3    41 1   
     8     3    42 1   
     9     3    43 1   
    10     4     5 1   
    11     4    44 1   
    12     4    45 1   
    13     5     6 1   
    14     5    46 1   
    15     5    47 1   
    16     6     7 1   
    17     6    12 1   
    18     7    48 1   
    19     7    49 1   
    20     7    50 1   
    21     8     9 ar  
    22     8    12 ar  
    23     8    51 1   
    24     9    10 1   
    25     9    20 ar  
    26    10    11 1   
    27    11    52 1   
    28    11    53 1   
    29    11    54 1   
    30    12    13 ar  
    31    13    14 1   
    32    13    19 ar  
    33    14    15 1   
    34    14    55 1   
    35    15    16 2   
    36    15    17 1   
    37    17    18 2   
    38    17    56 1   
    39    18    57 1   
    40    18    58 1   
    41    19    20 ar  
    42    19    59 1   
    43    20    21 1   
    44    21    22 1   
    45    21    60 1   
    46    22    23 ar  
    47    22    24 ar  
    48    23    27 ar  
    49    24    25 ar  
    50    25    26 ar  
    51    25    61 1   
    52    26    27 ar  
    53    26    62 1   
    54    27    28 1   
    55    28    29 1   
    56    28    37 2   
    57    29    30 ar  
    58    29    34 ar  
    59    30    31 ar  
    60    30    63 1   
    61    31    32 ar  
    62    31    64 1   
    63    32    33 ar  
    64    32    65 1   
    65    33    34 ar  
    66    33    66 1   
    67    34    35 1   
    68    35    36 1   
    69    35    37 1   
    70    36    67 1   
    71    36    68 1   
    72    36    69 1   
    73    37    70 1   
@<TRIPOS>SUBSTRUCTURE
     1 YY3         1 TEMP              0 ****  ****    0 ROOT
