@<TRIPOS>MOLECULE
YY4
   76    80     1     0     0
SMALL
abcg2


@<TRIPOS>ATOM
      1 CBB         -1.5080     7.4600    -1.9100 c3         1 YY4       0.147400
      2 OAZ         -1.1770     6.0850    -2.0010 os         1 YY4      -0.318100
      3 CAA         -0.4680     5.5250    -1.0190 ca         1 YY4       0.196600
      4 CAB         -0.1650     4.1700    -1.1590 ca         1 YY4       0.046500
      5 CLX         -0.7150     3.3140    -2.5470 cl         1 YY4      -0.158500
      6 CAF         -0.0210     6.2070     0.1090 ca         1 YY4      -0.279000
      7 CAE          0.7190     5.5560     1.0910 ca         1 YY4       0.196600
      8 OBA          1.1800     6.1440     2.1970 os         1 YY4      -0.318100
      9 CBC          0.8990     7.5170     2.4100 c3         1 YY4       0.147400
     10 CAD          1.0110     4.1990     0.9350 ca         1 YY4       0.046500
     11 CLY          1.9230     3.3780     2.1420 cl         1 YY4      -0.158500
     12 CAC          0.5700     3.5090    -0.1850 ca         1 YY4       0.039000
     13 NAG          0.9150     2.1540    -0.3430 n          1 YY4      -0.244400
     14 CAL         -0.0260     1.2240    -0.0260 c          1 YY4       0.633000
     15 OBQ         -1.1230     1.5400     0.3870 o          1 YY4      -0.539000
     16 CAH          2.1460     1.8460    -1.0550 c6         1 YY4       0.194300
     17 C5           2.6270     0.5150    -0.6040 ca         1 YY4      -0.299300
     18 C6           3.9390     0.1100    -0.5640 ca         1 YY4       0.182900
     19 N1           4.3190    -1.1210    -0.2340 nb         1 YY4      -0.247000
     20 C2           3.3450    -1.9690     0.0640 ca         1 YY4       0.421900
     21 NAQ          3.6230    -3.2600     0.3840 nu         1 YY4      -0.923900
     22 CAR          4.8230    -3.9590     0.4650 ca         1 YY4       0.314000
     23 CAS          6.0880    -3.4160     0.2240 ca         1 YY4      -0.151000
     24 CAT          7.2150    -4.2200     0.3380 ca         1 YY4      -0.083000
     25 CAU          7.1190    -5.5580     0.6870 ca         1 YY4      -0.138000
     26 CAV          5.8610    -6.0970     0.9270 ca         1 YY4      -0.083000
     27 CAW          4.7290    -5.3110     0.8180 ca         1 YY4      -0.151000
     28 N3           2.0400    -1.6730     0.1000 nb         1 YY4      -0.305000
     29 C4           1.6900    -0.4500    -0.2270 ca         1 YY4       0.313900
     30 NAK          0.3470    -0.1090    -0.1800 n          1 YY4      -0.385300
     31 CBD         -0.6370    -1.1670     0.0160 c5         1 YY4       0.102700
     32 CBH         -1.8890    -1.0740    -0.8610 c5         1 YY4       0.096000
     33 CBE         -1.1680    -1.3710     1.4310 c5         1 YY4      -0.110400
     34 CBF         -2.3500    -2.2990     1.1920 c5         1 YY4       0.112000
     35 NBG         -2.8320    -1.9140    -0.1360 n          1 YY4      -0.414800
     36 CBI         -3.9620    -2.3340    -0.7320 c          1 YY4       0.611300
     37 OBK         -4.2620    -1.9650    -1.8650 o          1 YY4      -0.613100
     38 CBJ         -4.8190    -3.2680     0.0400 ce         1 YY4      -0.297200
     39 CBL         -5.8890    -3.8360    -0.5130 c2         1 YY4      -0.130200
     40 CBM         -6.7520    -4.8310     0.1940 c3         1 YY4       0.185000
     41 NBN         -8.1710    -4.5260     0.0930 n3         1 YY4      -0.701600
     42 CBP         -8.6860    -4.7690    -1.2390 c3         1 YY4       0.146100
     43 CBO         -8.9240    -5.2820     1.0720 c3         1 YY4       0.146100
     44 H1          -2.0670     7.6980    -2.8100 h1         1 YY4       0.046200
     45 H2          -2.1340     7.6680    -1.0390 h1         1 YY4       0.046200
     46 H3          -0.6160     8.0890    -1.8700 h1         1 YY4       0.046200
     47 H4          -0.2510     7.2570     0.2240 ha         1 YY4       0.128000
     48 H5           1.3620     7.7770     3.3580 h1         1 YY4       0.046200
     49 H6           1.3250     8.1440     1.6240 h1         1 YY4       0.046200
     50 H7          -0.1750     7.7040     2.4760 h1         1 YY4       0.046200
     51 H8           1.9730     1.8610    -2.1370 h1         1 YY4       0.060200
     52 H9           2.8810     2.6200    -0.8340 h1         1 YY4       0.060200
     53 H10          4.7310     0.8060    -0.8210 h4         1 YY4       0.026100
     54 H11          2.7960    -3.8000     0.5930 hn         1 YY4       0.509000
     55 H12          6.1940    -2.3790    -0.0470 ha         1 YY4       0.129000
     56 H13          8.1860    -3.7810     0.1470 ha         1 YY4       0.113000
     57 H14          8.0060    -6.1710     0.7750 ha         1 YY4       0.115000
     58 H15          5.7560    -7.1390     1.2000 ha         1 YY4       0.113000
     59 H16          3.7550    -5.7470     1.0100 ha         1 YY4       0.129000
     60 H17         -0.1230    -2.0830    -0.2690 h1         1 YY4       0.084700
     61 H18         -2.2720    -0.0600    -0.9660 h1         1 YY4       0.072200
     62 H19         -1.6990    -1.4670    -1.8600 h1         1 YY4       0.072200
     63 H20         -0.4230    -1.8190     2.0880 hc         1 YY4       0.072200
     64 H21         -1.5000    -0.4320     1.8710 hc         1 YY4       0.072200
     65 H22         -2.0340    -3.3450     1.2030 h1         1 YY4       0.044700
     66 H23         -3.1190    -2.1690     1.9520 h1         1 YY4       0.044700
     67 H24         -4.5600    -3.5050     1.0650 ha         1 YY4       0.175000
     68 H25         -6.1320    -3.5960    -1.5430 ha         1 YY4       0.198000
     69 H26         -6.5290    -5.8370    -0.2080 h1         1 YY4       0.039200
     70 H27         -6.4740    -4.8550     1.2500 h1         1 YY4       0.039200
     71 H29         -8.5680    -5.8160    -1.5610 h1         1 YY4       0.032200
     72 H30         -9.7490    -4.5270    -1.2730 h1         1 YY4       0.032200
     73 H31         -8.1900    -4.1380    -1.9770 h1         1 YY4       0.032200
     74 H32         -8.5900    -5.0330     2.0810 h1         1 YY4       0.032200
     75 H33         -9.9820    -5.0300     0.9990 h1         1 YY4       0.032200
     76 H34         -8.8320    -6.3720     0.9470 h1         1 YY4       0.032200
@<TRIPOS>BOND
     1     1     2 1   
     2     1    44 1   
     3     1    45 1   
     4     1    46 1   
     5     2     3 1   
     6     3     4 ar  
     7     3     6 ar  
     8     4     5 1   
     9     4    12 ar  
    10     6     7 ar  
    11     6    47 1   
    12     7     8 1   
    13     7    10 ar  
    14     8     9 1   
    15     9    48 1   
    16     9    49 1   
    17     9    50 1   
    18    10    11 1   
    19    10    12 ar  
    20    12    13 1   
    21    13    14 1   
    22    13    16 1   
    23    14    15 2   
    24    14    30 1   
    25    16    17 1   
    26    16    51 1   
    27    16    52 1   
    28    17    18 ar  
    29    17    29 ar  
    30    18    19 ar  
    31    18    53 1   
    32    19    20 ar  
    33    20    21 1   
    34    20    28 ar  
    35    21    22 1   
    36    21    54 1   
    37    22    23 ar  
    38    22    27 ar  
    39    23    24 ar  
    40    23    55 1   
    41    24    25 ar  
    42    24    56 1   
    43    25    26 ar  
    44    25    57 1   
    45    26    27 ar  
    46    26    58 1   
    47    27    59 1   
    48    28    29 ar  
    49    29    30 1   
    50    30    31 1   
    51    31    32 1   
    52    31    33 1   
    53    31    60 1   
    54    32    35 1   
    55    32    61 1   
    56    32    62 1   
    57    33    34 1   
    58    33    63 1   
    59    33    64 1   
    60    34    35 1   
    61    34    65 1   
    62    34    66 1   
    63    35    36 1   
    64    36    37 2   
    65    36    38 1   
    66    38    39 2   
    67    38    67 1   
    68    39    40 1   
    69    39    68 1   
    70    40    41 1   
    71    40    69 1   
    72    40    70 1   
    73    41    42 1   
    74    41    43 1   
    75    42    71 1   
    76    42    72 1   
    77    42    73 1   
    78    43    74 1   
    79    43    75 1   
    80    43    76 1   
@<TRIPOS>SUBSTRUCTURE
     1 YY4         1 TEMP              0 ****  ****    0 ROOT
