@<TRIPOS>MOLECULE
YY4
   76    80     1     0     0
SMALL
No Charge or Current Charge


@<TRIPOS>ATOM
      1 CBB         -0.9980     7.5830    -2.3890 c3         1 YY4       0.147400
      2 OAZ         -0.4850     6.2400    -2.4280 os         1 YY4      -0.318100
      3 CAA         -0.2780     5.4840    -1.2880 ca         1 YY4       0.196600
      4 CAB          0.2220     4.1730    -1.4340 ca         1 YY4       0.046500
      5 ClX          0.5090     3.5320    -3.0600 cl         1 YY4      -0.158500
      6 CAF         -0.5670     5.9870    -0.0010 ca         1 YY4      -0.279000
      7 CAE         -0.3750     5.1730     1.1350 ca         1 YY4       0.196600
      8 OBA         -0.6680     5.6200     2.4110 os         1 YY4      -0.318100
      9 CBC         -1.1830     6.9370     2.6740 c3         1 YY4       0.147400
     10 CAD          0.1240     3.8620     0.9820 ca         1 YY4       0.046500
     11 ClY          0.3630     2.8450     2.4130 cl         1 YY4      -0.158500
     12 CAC          0.4700     3.3720    -0.2970 ca         1 YY4       0.039000
     13 NAG          0.8790     2.0010    -0.4420 n          1 YY4      -0.244400
     14 CAL         -0.0550     0.9430    -0.3600 c          1 YY4       0.633000
     15 OBQ         -1.2420     1.2160    -0.2520 o          1 YY4      -0.539000
     16 CAH          2.2900     1.7680    -0.7800 c6         1 YY4       0.194300
     17 C5           2.7490     0.3790    -0.4190 ca         1 YY4      -0.299300
     18 C6           4.1110     0.0820    -0.2470 ca         1 YY4       0.182900
     19 N1           4.5230    -1.1630     0.0480 nb         1 YY4      -0.247000
     20 C2           3.5630    -2.0970     0.1560 ca         1 YY4       0.421900
     21 NAQ          3.9210    -3.3920     0.4980 nu         1 YY4      -0.923900
     22 CAR          5.1350    -4.0740     0.6350 ca         1 YY4       0.314000
     23 CAS          6.2960    -3.7010    -0.0710 ca         1 YY4      -0.151000
     24 CAT          7.4910    -4.4260     0.0860 ca         1 YY4      -0.083000
     25 CAU          7.5300    -5.5370     0.9450 ca         1 YY4      -0.138000
     26 CAV          6.3730    -5.9250     1.6400 ca         1 YY4      -0.083000
     27 CAW          5.1800    -5.1980     1.4790 ca         1 YY4      -0.151000
     28 N3           2.2430    -1.9080     0.0220 nb         1 YY4      -0.305000
     29 C4           1.8280    -0.6620    -0.2880 ca         1 YY4       0.313900
     30 NAK          0.4180    -0.4030    -0.3840 n          1 YY4      -0.385300
     31 CBD         -0.5510    -1.5690    -0.3770 c5         1 YY4       0.102700
     32 CBH         -1.6580    -1.4710    -1.4680 c5         1 YY4       0.096000
     33 CBE         -1.3230    -1.6370     0.9640 c5         1 YY4      -0.110400
     34 CBF         -2.4670    -2.6160     0.5830 c5         1 YY4       0.112000
     35 NBG         -2.7210    -2.2960    -0.8460 n          1 YY4      -0.414800
     36 CBI         -3.8520    -2.7240    -1.5670 c          1 YY4       0.611300
     37 OBK         -4.0260    -2.3560    -2.7210 o          1 YY4      -0.613100
     38 CBJ         -4.8660    -3.5700    -0.8690 ce         1 YY4      -0.297200
     39 CBL         -6.1570    -3.6820    -1.2670 c2         1 YY4      -0.130200
     40 CBM         -7.2360    -4.4810    -0.5630 c3         1 YY4       0.185000
     41 NBN         -7.3580    -4.1380     0.8750 n3         1 YY4      -0.701600
     42 CBP         -7.7350    -2.7240     1.1120 c3         1 YY4       0.146100
     43 CBO         -8.2350    -5.0790     1.6050 c3         1 YY4       0.146100
     44 H1          -1.0790     7.9880    -3.4060 h1         1 YY4       0.046200
     45 H2          -1.9960     7.6070    -1.9340 h1         1 YY4       0.046200
     46 H3          -0.3310     8.2390    -1.8160 h1         1 YY4       0.046200
     47 H4          -0.9500     6.9940     0.1130 ha         1 YY4       0.128000
     48 H5          -1.3410     7.0740     3.7510 h1         1 YY4       0.046200
     49 H6          -0.4800     7.7070     2.3330 h1         1 YY4       0.046200
     50 H7          -2.1460     7.0870     2.1690 h1         1 YY4       0.046200
     51 H8           2.4370     1.9200    -1.8580 h1         1 YY4       0.060200
     52 H9           2.9120     2.5060    -0.2530 h1         1 YY4       0.060200
     53 H10          4.8810     0.8460    -0.3470 h4         1 YY4       0.026100
     54 H11          3.1110    -3.9430     0.7770 hn         1 YY4       0.509000
     55 H12          6.2790    -2.8620    -0.7580 ha         1 YY4       0.129000
     56 H13          8.3830    -4.1310    -0.4620 ha         1 YY4       0.113000
     57 H14          8.4530    -6.0990     1.0670 ha         1 YY4       0.115000
     58 H15          6.3990    -6.7890     2.3020 ha         1 YY4       0.113000
     59 H16          4.2910    -5.5060     2.0220 ha         1 YY4       0.129000
     60 H17         -0.0370    -2.5270    -0.5350 h1         1 YY4       0.084700
     61 H18         -2.0310    -0.4610    -1.6650 h1         1 YY4       0.072200
     62 H19         -1.3140    -1.8920    -2.4220 h1         1 YY4       0.072200
     63 H20         -0.7080    -2.0110     1.7890 hc         1 YY4       0.072200
     64 H21         -1.7380    -0.6750     1.2760 hc         1 YY4       0.072200
     65 H22         -2.1480    -3.6620     0.6890 h1         1 YY4       0.044700
     66 H23         -3.3530    -2.4560     1.2110 h1         1 YY4       0.044700
     67 H24         -4.5570    -4.0530     0.0540 ha         1 YY4       0.175000
     68 H25         -6.5090    -3.1740    -2.1670 ha         1 YY4       0.198000
     69 H26         -8.1970    -4.3190    -1.0710 h1         1 YY4       0.039200
     70 H27         -6.9930    -5.5470    -0.6710 h1         1 YY4       0.039200
     71 H29         -8.7240    -2.5060     0.6860 h1         1 YY4       0.032200
     72 H30         -7.7690    -2.5080     2.1880 h1         1 YY4       0.032200
     73 H31         -7.0060    -2.0390     0.6590 h1         1 YY4       0.032200
     74 H32         -7.8830    -6.1120     1.4840 h1         1 YY4       0.032200
     75 H33         -8.2420    -4.8500     2.6790 h1         1 YY4       0.032200
     76 H34         -9.2670    -5.0220     1.2340 h1         1 YY4       0.032200
@<TRIPOS>BOND
     1     1     2 1   
     2     1    44 1   
     3     1    45 1   
     4     1    46 1   
     5     2     3 1   
     6     3     4 ar  
     7     3     6 ar  
     8     4     5 1   
     9     4    12 ar  
    10     6     7 ar  
    11     6    47 1   
    12     7     8 1   
    13     7    10 ar  
    14     8     9 1   
    15     9    48 1   
    16     9    49 1   
    17     9    50 1   
    18    10    11 1   
    19    10    12 ar  
    20    12    13 1   
    21    13    14 1   
    22    13    16 1   
    23    14    15 2   
    24    14    30 1   
    25    16    17 1   
    26    16    51 1   
    27    16    52 1   
    28    17    18 ar  
    29    17    29 ar  
    30    18    19 ar  
    31    18    53 1   
    32    19    20 ar  
    33    20    21 1   
    34    20    28 ar  
    35    21    22 1   
    36    21    54 1   
    37    22    23 ar  
    38    22    27 ar  
    39    23    24 ar  
    40    23    55 1   
    41    24    25 ar  
    42    24    56 1   
    43    25    26 ar  
    44    25    57 1   
    45    26    27 ar  
    46    26    58 1   
    47    27    59 1   
    48    28    29 ar  
    49    29    30 1   
    50    30    31 1   
    51    31    32 1   
    52    31    33 1   
    53    31    60 1   
    54    32    35 1   
    55    32    61 1   
    56    32    62 1   
    57    33    34 1   
    58    33    63 1   
    59    33    64 1   
    60    34    35 1   
    61    34    65 1   
    62    34    66 1   
    63    35    36 1   
    64    36    37 2   
    65    36    38 1   
    66    38    39 2   
    67    38    67 1   
    68    39    40 1   
    69    39    68 1   
    70    40    41 1   
    71    40    69 1   
    72    40    70 1   
    73    41    42 1   
    74    41    43 1   
    75    42    71 1   
    76    42    72 1   
    77    42    73 1   
    78    43    74 1   
    79    43    75 1   
    80    43    76 1   
@<TRIPOS>SUBSTRUCTURE
     1 YY4         1 TEMP              0 ****  ****    0 ROOT
