@<TRIPOS>MOLECULE
YY5
   75    78     1     0     0
SMALL
bcc


@<TRIPOS>ATOM
      1 CAI          5.3460    -4.6600    -2.3550 c3         1 YY5       0.124700
      2 OAH          4.7010    -3.4090    -2.1860 os         1 YY5      -0.295400
      3 CAE          3.9860    -3.1960    -1.0800 ca         1 YY5       0.195600
      4 CAD          3.3840    -1.9430    -0.9550 ca         1 YY5      -0.045600
      5 CLL          3.5950    -0.7690    -2.1950 cl         1 YY5      -0.066900
      6 CAF          3.8110    -4.1370    -0.0700 ca         1 YY5      -0.299000
      7 CAA          3.0460    -3.8410     1.0560 ca         1 YY5       0.195600
      8 OAG          2.8340    -4.6910     2.0620 os         1 YY5      -0.295400
      9 CAJ          3.4210    -5.9800     2.0060 c3         1 YY5       0.124700
     10 CAB          2.4550    -2.5820     1.1650 ca         1 YY5      -0.045600
     11 CLK          1.5070    -2.2070     2.5530 cl         1 YY5      -0.066900
     12 CAC          2.6220    -1.6360     0.1640 ca         1 YY5       0.133600
     13 NAM          2.0700    -0.3480     0.2960 n          1 YY5      -0.402000
     14 CAR          0.7390    -0.2070     0.0480 c          1 YY5       0.842500
     15 OAW          0.0590    -1.1410    -0.3290 o          1 YY5      -0.620500
     16 CAN          2.8800     0.6620     0.9620 c6         1 YY5       0.197300
     17 C5           2.3910     2.0050     0.5520 ca         1 YY5      -0.445900
     18 C6           3.1570     3.1470     0.4840 ca         1 YY5       0.515200
     19 N1           2.6700     4.3450     0.1920 nb         1 YY5      -0.789000
     20 C2           1.3560     4.4020    -0.0360 ca         1 YY5       0.946900
     21 NAX          0.7950     5.5980    -0.2760 nu         1 YY5      -0.863900
     22 CAY          1.5240     6.8450    -0.4210 c3         1 YY5       0.248500
     23 CBA          2.1550     6.9780    -1.8040 c3         1 YY5      -0.110600
     24 CAZ          0.5800     8.0000    -0.1250 c3         1 YY5      -0.110600
     25 N3           0.5250     3.3480    -0.0430 nb         1 YY5      -0.836000
     26 C4           1.0400     2.1750     0.2460 ca         1 YY5       0.644200
     27 NAQ          0.2060     1.0640     0.2320 n          1 YY5      -0.454300
     28 CBB         -1.2340     1.2650     0.1420 c5         1 YY5       0.105700
     29 CBF         -2.0650     0.4140     1.1090 c5         1 YY5       0.095000
     30 CBC         -1.8890     1.0630    -1.2210 c5         1 YY5      -0.109400
     31 CBD         -3.3660     1.0150    -0.8560 c5         1 YY5       0.111000
     32 NBE         -3.3700     0.3900     0.4680 n          1 YY5      -0.481800
     33 CBG         -4.4200    -0.1790     1.0840 c          1 YY5       0.678300
     34 OBH         -4.2940    -0.7440     2.1680 o          1 YY5      -0.611100
     35 CBI         -5.7300    -0.0870     0.3930 ce         1 YY5      -0.251200
     36 CBJ         -6.7760    -0.8080     0.7910 c2         1 YY5      -0.085200
     37 CBK         -8.1330    -0.7280     0.1740 c3         1 YY5       0.185000
     38 NBL         -8.6390    -2.0400    -0.1810 n3         1 YY5      -0.709600
     39 CBN        -10.0490    -1.9890    -0.5020 c3         1 YY5       0.149100
     40 CBM         -7.8760    -2.6350    -1.2580 c3         1 YY5       0.149100
     41 H1           4.6300    -5.4840    -2.3870 h1         1 YY5       0.045700
     42 H2           5.8650    -4.6070    -3.3080 h1         1 YY5       0.045700
     43 H3           6.0760    -4.8480    -1.5640 h1         1 YY5       0.045700
     44 H4           4.2740    -5.1100    -0.1570 ha         1 YY5       0.145000
     45 H5           3.1190    -6.4910     2.9160 h1         1 YY5       0.045700
     46 H6           3.0660    -6.5500     1.1450 h1         1 YY5       0.045700
     47 H7           4.5120    -5.9260     1.9770 h1         1 YY5       0.045700
     48 H8           2.8290     0.5310     2.0480 h1         1 YY5       0.057200
     49 H9           3.9200     0.5230     0.6670 h1         1 YY5       0.057200
     50 H10          4.2240     3.0940     0.6830 h4         1 YY5       0.022100
     51 H11         -0.1790     5.5860    -0.5350 hn         1 YY5       0.445800
     52 H12          2.3210     6.8440     0.3250 h1         1 YY5       0.078700
     53 H13          2.7110     7.9140    -1.8800 hc         1 YY5       0.043867
     54 H14          2.8480     6.1610    -2.0010 hc         1 YY5       0.043867
     55 H15          1.3890     6.9760    -2.5820 hc         1 YY5       0.043867
     56 H16          0.1480     7.9160     0.8730 hc         1 YY5       0.043867
     57 H17          1.1140     8.9470    -0.1830 hc         1 YY5       0.043867
     58 H18         -0.2380     8.0370    -0.8490 hc         1 YY5       0.043867
     59 H19         -1.3870     2.3060     0.4180 h1         1 YY5       0.086700
     60 H20         -1.6770    -0.5960     1.2390 h1         1 YY5       0.070700
     61 H21         -2.1180     0.8790     2.0940 h1         1 YY5       0.070700
     62 H22         -1.6670     1.8760    -1.9110 hc         1 YY5       0.071700
     63 H23         -1.5810     0.1240    -1.6780 hc         1 YY5       0.071700
     64 H24         -3.7920     2.0210    -0.8120 h1         1 YY5       0.044700
     65 H25         -3.9410     0.4340    -1.5750 h1         1 YY5       0.044700
     66 H26         -5.8380     0.5860    -0.4490 ha         1 YY5       0.124000
     67 H27         -6.6710    -1.4960     1.6250 ha         1 YY5       0.156000
     68 H28         -8.8120    -0.2950     0.9160 h1         1 YY5       0.039200
     69 H29         -8.1220    -0.0360    -0.6850 h1         1 YY5       0.039200
     70 H31        -10.2770    -1.3550    -1.3730 h1         1 YY5       0.032033
     71 H32        -10.4180    -2.9920    -0.7180 h1         1 YY5       0.032033
     72 H33        -10.6130    -1.6020     0.3480 h1         1 YY5       0.032033
     73 H34         -6.8310    -2.7530    -0.9690 h1         1 YY5       0.032033
     74 H35         -8.2700    -3.6260    -1.4860 h1         1 YY5       0.032033
     75 H36         -7.9000    -2.0400    -2.1850 h1         1 YY5       0.032033
@<TRIPOS>BOND
     1     1     2 1   
     2     1    41 1   
     3     1    42 1   
     4     1    43 1   
     5     2     3 1   
     6     3     4 ar  
     7     3     6 ar  
     8     4     5 1   
     9     4    12 ar  
    10     6     7 ar  
    11     6    44 1   
    12     7     8 1   
    13     7    10 ar  
    14     8     9 1   
    15     9    45 1   
    16     9    46 1   
    17     9    47 1   
    18    10    11 1   
    19    10    12 ar  
    20    12    13 1   
    21    13    14 1   
    22    13    16 1   
    23    14    15 2   
    24    14    27 1   
    25    16    17 1   
    26    16    48 1   
    27    16    49 1   
    28    17    18 ar  
    29    17    26 ar  
    30    18    19 ar  
    31    18    50 1   
    32    19    20 ar  
    33    20    21 1   
    34    20    25 ar  
    35    21    22 1   
    36    21    51 1   
    37    22    23 1   
    38    22    24 1   
    39    22    52 1   
    40    23    53 1   
    41    23    54 1   
    42    23    55 1   
    43    24    56 1   
    44    24    57 1   
    45    24    58 1   
    46    25    26 ar  
    47    26    27 1   
    48    27    28 1   
    49    28    29 1   
    50    28    30 1   
    51    28    59 1   
    52    29    32 1   
    53    29    60 1   
    54    29    61 1   
    55    30    31 1   
    56    30    62 1   
    57    30    63 1   
    58    31    32 1   
    59    31    64 1   
    60    31    65 1   
    61    32    33 1   
    62    33    34 2   
    63    33    35 1   
    64    35    36 2   
    65    35    66 1   
    66    36    37 1   
    67    36    67 1   
    68    37    38 1   
    69    37    68 1   
    70    37    69 1   
    71    38    39 1   
    72    38    40 1   
    73    39    70 1   
    74    39    71 1   
    75    39    72 1   
    76    40    73 1   
    77    40    74 1   
    78    40    75 1   
@<TRIPOS>SUBSTRUCTURE
     1 YY5         1 TEMP              0 ****  ****    0 ROOT
