@<TRIPOS>MOLECULE
YY5
   75    78     1     0     0
SMALL
No Charge or Current Charge


@<TRIPOS>ATOM
      1 CAI          4.0040    -5.2510    -2.7590 c3         1 YY5       0.147900
      2 OAH          3.5010    -3.9370    -2.4560 os         1 YY5      -0.318600
      3 CAE          3.3570    -3.4720    -1.1610 ca         1 YY5       0.195600
      4 CAD          2.8520    -2.1700    -0.9680 ca         1 YY5       0.046000
      5 ClL          2.4270    -1.1800    -2.3760 cl         1 YY5      -0.158500
      6 CAF          3.6980    -4.2640    -0.0440 ca         1 YY5      -0.281000
      7 CAA          3.5140    -3.7600     1.2610 ca         1 YY5       0.195600
      8 OAG          3.8040    -4.5180     2.3820 os         1 YY5      -0.318600
      9 CAJ          4.3150    -5.8610     2.3020 c3         1 YY5       0.147900
     10 CAB          3.0090    -2.4560     1.4470 ca         1 YY5       0.046000
     11 ClK          2.7150    -1.8670     3.0920 cl         1 YY5      -0.158500
     12 CAC          2.7200    -1.6360     0.3330 ca         1 YY5       0.041000
     13 NAM          2.1070    -0.3480     0.5110 n          1 YY5      -0.242400
     14 CAR          0.7130    -0.1700     0.3690 c          1 YY5       0.633000
     15 OAW          0.0130    -1.1550     0.1770 o          1 YY5      -0.545000
     16 CAN          2.9890     0.7430     0.9480 c6         1 YY5       0.197300
     17 C5           2.4290     2.1040     0.6230 ca         1 YY5      -0.315300
     18 C6           3.2570     3.2350     0.5530 ca         1 YY5       0.186900
     19 N1           2.7550     4.4540     0.2910 nb         1 YY5      -0.263000
     20 C2           1.4250     4.5180     0.1040 ca         1 YY5       0.420900
     21 NAX          0.8590     5.7520    -0.1700 nu         1 YY5      -0.919100
     22 CAY          1.5460     7.0290    -0.4070 c3         1 YY5       0.248500
     23 CBA          2.1170     7.0620    -1.8380 c3         1 YY5      -0.110600
     24 CAZ          0.5580     8.1830    -0.1530 c3         1 YY5      -0.110600
     25 N3           0.5550     3.5010     0.1560 nb         1 YY5      -0.310000
     26 C4           1.0570     2.2790     0.4320 ca         1 YY5       0.315900
     27 NAQ          0.1710     1.1480     0.4300 n          1 YY5      -0.387300
     28 CBB         -1.3250     1.3800     0.3590 c5         1 YY5       0.105700
     29 CBF         -2.1410     0.5210     1.3700 c5         1 YY5       0.095000
     30 CBC         -1.8800     0.9850    -1.0320 c5         1 YY5      -0.109400
     31 CBD         -3.4020     0.9430    -0.7290 c5         1 YY5       0.111000
     32 NBE         -3.4510     0.4660     0.6780 n          1 YY5      -0.414800
     33 CBG         -4.6150     0.0030     1.3210 c          1 YY5       0.611300
     34 OBH         -4.5590    -0.4440     2.4580 o          1 YY5      -0.611100
     35 CBI         -5.9000    -0.0010     0.5570 ce         1 YY5      -0.301200
     36 CBJ         -6.9550    -0.7940     0.8670 c2         1 YY5      -0.135200
     37 CBK         -8.2550    -0.8830     0.0970 c3         1 YY5       0.185000
     38 NBL         -8.3600    -2.1380    -0.6820 n3         1 YY5      -0.709600
     39 CBN         -9.7180    -2.3460    -1.2310 c3         1 YY5       0.149100
     40 CBM         -7.3110    -2.2730    -1.7220 c3         1 YY5       0.149100
     41 H1           3.3610    -6.0250    -2.3230 h1         1 YY5       0.045700
     42 H2           4.0320    -5.4050    -3.8450 h1         1 YY5       0.045700
     43 H3           5.0230    -5.3770    -2.3710 h1         1 YY5       0.045700
     44 H4           4.0860    -5.2650    -0.1880 ha         1 YY5       0.127000
     45 H5           4.4710    -6.2670     3.3090 h1         1 YY5       0.045700
     46 H6           3.6090    -6.5170     1.7770 h1         1 YY5       0.045700
     47 H7           5.2770    -5.8810     1.7750 h1         1 YY5       0.045700
     48 H8           3.1450     0.6750     2.0330 h1         1 YY5       0.057200
     49 H9           3.9700     0.6280     0.4640 h1         1 YY5       0.057200
     50 H10          4.3330     3.1680     0.7090 h4         1 YY5       0.022100
     51 H11         -0.1510     5.7340    -0.3030 hn         1 YY5       0.501000
     52 H12          2.3770     7.1450     0.3060 h1         1 YY5       0.078700
     53 H13          2.6310     8.0130    -2.0230 hc         1 YY5       0.043867
     54 H14          2.8410     6.2530    -1.9890 hc         1 YY5       0.043867
     55 H15          1.3180     6.9530    -2.5820 hc         1 YY5       0.043867
     56 H16          0.1780     8.1490     0.8750 hc         1 YY5       0.043867
     57 H17          1.0550     9.1500    -0.2970 hc         1 YY5       0.043867
     58 H18         -0.2950     8.1320    -0.8410 hc         1 YY5       0.043867
     59 H19         -1.5850     2.4290     0.5560 h1         1 YY5       0.086700
     60 H20         -1.7600    -0.4910     1.5370 h1         1 YY5       0.070700
     61 H21         -2.2110     1.0170     2.3470 h1         1 YY5       0.070700
     62 H22         -1.6260     1.7120    -1.8110 hc         1 YY5       0.071700
     63 H23         -1.5360     0.0060    -1.3760 hc         1 YY5       0.071700
     64 H24         -3.8520     1.9420    -0.8080 h1         1 YY5       0.044700
     65 H25         -3.9270     0.2680    -1.4180 h1         1 YY5       0.044700
     66 H26         -5.9430     0.6140    -0.3370 ha         1 YY5       0.174000
     67 H27         -6.9230    -1.4540     1.7360 ha         1 YY5       0.206000
     68 H28         -9.0830    -0.8220     0.8180 h1         1 YY5       0.039200
     69 H29         -8.3490    -0.0140    -0.5690 h1         1 YY5       0.039200
     70 H31         -9.9710    -1.5630    -1.9580 h1         1 YY5       0.032033
     71 H32         -9.7890    -3.3200    -1.7350 h1         1 YY5       0.032033
     72 H33        -10.4690    -2.3270    -0.4290 h1         1 YY5       0.032033
     73 H34         -6.3070    -2.2410    -1.2800 h1         1 YY5       0.032033
     74 H35         -7.4100    -3.2310    -2.2500 h1         1 YY5       0.032033
     75 H36         -7.3880    -1.4650    -2.4620 h1         1 YY5       0.032033
@<TRIPOS>BOND
     1     1     2 1   
     2     1    41 1   
     3     1    42 1   
     4     1    43 1   
     5     2     3 1   
     6     3     4 ar  
     7     3     6 ar  
     8     4     5 1   
     9     4    12 ar  
    10     6     7 ar  
    11     6    44 1   
    12     7     8 1   
    13     7    10 ar  
    14     8     9 1   
    15     9    45 1   
    16     9    46 1   
    17     9    47 1   
    18    10    11 1   
    19    10    12 ar  
    20    12    13 1   
    21    13    14 1   
    22    13    16 1   
    23    14    15 2   
    24    14    27 1   
    25    16    17 1   
    26    16    48 1   
    27    16    49 1   
    28    17    18 ar  
    29    17    26 ar  
    30    18    19 ar  
    31    18    50 1   
    32    19    20 ar  
    33    20    21 1   
    34    20    25 ar  
    35    21    22 1   
    36    21    51 1   
    37    22    23 1   
    38    22    24 1   
    39    22    52 1   
    40    23    53 1   
    41    23    54 1   
    42    23    55 1   
    43    24    56 1   
    44    24    57 1   
    45    24    58 1   
    46    25    26 ar  
    47    26    27 1   
    48    27    28 1   
    49    28    29 1   
    50    28    30 1   
    51    28    59 1   
    52    29    32 1   
    53    29    60 1   
    54    29    61 1   
    55    30    31 1   
    56    30    62 1   
    57    30    63 1   
    58    31    32 1   
    59    31    64 1   
    60    31    65 1   
    61    32    33 1   
    62    33    34 2   
    63    33    35 1   
    64    35    36 2   
    65    35    66 1   
    66    36    37 1   
    67    36    67 1   
    68    37    38 1   
    69    37    68 1   
    70    37    69 1   
    71    38    39 1   
    72    38    40 1   
    73    39    70 1   
    74    39    71 1   
    75    39    72 1   
    76    40    73 1   
    77    40    74 1   
    78    40    75 1   
@<TRIPOS>SUBSTRUCTURE
     1 YY5         1 TEMP              0 ****  ****    0 ROOT
