@<TRIPOS>MOLECULE
YY6
   82    86     1     0     0
SMALL
abcg2


@<TRIPOS>ATOM
      1 CAV         -3.9020     6.3970    -1.9010 c3         1 YY6       0.147900
      2 OAT         -3.1090     5.2260    -1.9890 os         1 YY6      -0.318600
      3 CAP         -2.2160     4.9770    -1.0290 ca         1 YY6       0.195600
      4 CAQ         -1.4890     3.7910    -1.1400 ca         1 YY6       0.046500
      5 CLR         -1.7750     2.7400    -2.4730 cl         1 YY6      -0.158500
      6 CAO         -1.9750     5.8220     0.0510 ca         1 YY6      -0.281000
      7 CAN         -1.0240     5.4970     1.0140 ca         1 YY6       0.195600
      8 OAU         -0.7410     6.2570     2.0730 os         1 YY6      -0.318600
      9 CAW         -1.4400     7.4780     2.2470 c3         1 YY6       0.147900
     10 CAM         -0.3100     4.3040     0.8880 ca         1 YY6       0.046500
     11 CLS          0.8680     3.8860     2.0710 cl         1 YY6      -0.158500
     12 CAL         -0.5430     3.4530    -0.1830 ca         1 YY6       0.041000
     13 NAI          0.2160     2.2750    -0.3090 n          1 YY6      -0.244400
     14 CAH         -0.3810     1.1030     0.0410 c          1 YY6       0.634000
     15 OAK         -1.5190     1.0680     0.4660 o          1 YY6      -0.545000
     16 CAJ          1.4800     2.3540    -1.0260 c6         1 YY6       0.198300
     17 C5           2.3580     1.2530    -0.5510 ca         1 YY6      -0.315300
     18 C6           3.7350     1.2810    -0.5180 ca         1 YY6       0.186900
     19 N1           4.4840     0.2470    -0.1610 nb         1 YY6      -0.261000
     20 C2           3.8260    -0.8620     0.1860 ca         1 YY6       0.419900
     21 NBC          4.5320    -1.9400     0.5650 nu         1 YY6      -0.915100
     22 CBD          5.9730    -2.0590     0.4850 c6         1 YY6       0.244500
     23 CBE          6.4440    -2.4130    -0.9270 c6         1 YY6      -0.091900
     24 CBF          7.9600    -2.5750    -0.9790 c6         1 YY6      -0.071400
     25 CBG          8.4410    -3.6140     0.0290 c6         1 YY6      -0.078400
     26 CBH          7.9670    -3.2670     1.4370 c6         1 YY6      -0.071400
     27 CBI          6.4510    -3.1010     1.4920 c6         1 YY6      -0.091900
     28 N3           2.4900    -0.9900     0.2210 nb         1 YY6      -0.309000
     29 C4           1.7780     0.0520    -0.1410 ca         1 YY6       0.314900
     30 NAG          0.3920    -0.0450    -0.0950 n          1 YY6      -0.389300
     31 CAX         -0.2170    -1.3570     0.0840 c5         1 YY6       0.105700
     32 CBB         -1.4080    -1.6430    -0.8350 c5         1 YY6       0.094000
     33 CAY         -0.7050    -1.7250     1.4810 c5         1 YY6      -0.108400
     34 CAZ         -1.5540    -2.9590     1.2070 c5         1 YY6       0.112000
     35 NBA         -2.0830    -2.7270    -0.1390 n          1 YY6      -0.413800
     36 CBJ         -3.0440    -3.4330    -0.7590 c          1 YY6       0.610300
     37 OBK         -3.4130    -3.1440    -1.8950 o          1 YY6      -0.615100
     38 CBL         -3.6310    -4.5730    -0.0100 ce         1 YY6      -0.295200
     39 CBM         -4.5730    -5.3390    -0.5560 c2         1 YY6      -0.132200
     40 CBN         -5.1770    -6.5250     0.1250 c3         1 YY6       0.186000
     41 NBO         -6.6320    -6.4980     0.1070 n3         1 YY6      -0.704600
     42 CBQ         -7.1710    -6.7590    -1.2110 c3         1 YY6       0.147100
     43 CBP         -7.1710    -7.4340     1.0720 c3         1 YY6       0.147100
     44 H1          -4.5590     6.3840    -2.7670 h1         1 YY6       0.045867
     45 H2          -4.5100     6.4050    -0.9940 h1         1 YY6       0.045867
     46 H3          -3.2940     7.3040    -1.9340 h1         1 YY6       0.045867
     47 H4          -2.5330     6.7430     0.1410 ha         1 YY6       0.127000
     48 H5          -1.0480     7.9260     3.1550 h1         1 YY6       0.045867
     49 H6          -1.2710     8.1630     1.4130 h1         1 YY6       0.045867
     50 H7          -2.5140     7.3160     2.3670 h1         1 YY6       0.045867
     51 H8           1.3050     2.2920    -2.1060 h1         1 YY6       0.057700
     52 H9           1.9330     3.3250    -0.8250 h1         1 YY6       0.057700
     53 H10          4.2640     2.1830    -0.8100 h4         1 YY6       0.022100
     54 H11          3.9980    -2.7770     0.7370 hn         1 YY6       0.500000
     55 H12          6.3990    -1.0900     0.7590 h1         1 YY6       0.081700
     56 H13          5.9600    -3.3460    -1.2360 hc         1 YY6       0.046700
     57 H14          6.1190    -1.6380    -1.6270 hc         1 YY6       0.046700
     58 H15          8.2720    -2.8490    -1.9890 hc         1 YY6       0.043450
     59 H16          8.4350    -1.6130    -0.7570 hc         1 YY6       0.043450
     60 H17          8.0540    -4.6000    -0.2510 hc         1 YY6       0.040700
     61 H18          9.5300    -3.6890     0.0060 hc         1 YY6       0.040700
     62 H19          8.2770    -4.0400     2.1450 hc         1 YY6       0.043450
     63 H20          8.4470    -2.3380     1.7620 hc         1 YY6       0.043450
     64 H21          6.1330    -2.8170     2.4980 hc         1 YY6       0.046700
     65 H22          5.9750    -4.0620     1.2640 hc         1 YY6       0.046700
     66 H23          0.5660    -2.0670    -0.1800 h1         1 YY6       0.084700
     67 H24         -2.0720    -0.7880    -0.9610 h1         1 YY6       0.071200
     68 H25         -1.0740    -1.9580    -1.8240 h1         1 YY6       0.071200
     69 H26          0.1170    -1.9390     2.1620 hc         1 YY6       0.072700
     70 H27         -1.3130    -0.9320     1.9120 hc         1 YY6       0.072700
     71 H28         -0.9470    -3.8690     1.2320 h1         1 YY6       0.044700
     72 H29         -2.3540    -3.0660     1.9380 h1         1 YY6       0.044700
     73 H30         -3.2770    -4.7900     0.9910 ha         1 YY6       0.175000
     74 H31         -4.9080    -5.1130    -1.5630 ha         1 YY6       0.197000
     75 H32         -4.7860    -7.4430    -0.3510 h1         1 YY6       0.039200
     76 H33         -4.8430    -6.5510     1.1640 h1         1 YY6       0.039200
     77 H35         -6.8980    -7.7530    -1.5990 h1         1 YY6       0.032033
     78 H36         -8.2590    -6.7000    -1.1830 h1         1 YY6       0.032033
     79 H37         -6.8270    -6.0170    -1.9320 h1         1 YY6       0.032033
     80 H38         -6.8130    -7.1910     2.0730 h1         1 YY6       0.032033
     81 H39         -8.2600    -7.3690     1.0820 h1         1 YY6       0.032033
     82 H40         -6.9020    -8.4810     0.8630 h1         1 YY6       0.032033
@<TRIPOS>BOND
     1     1     2 1   
     2     1    44 1   
     3     1    45 1   
     4     1    46 1   
     5     2     3 1   
     6     3     4 ar  
     7     3     6 ar  
     8     4     5 1   
     9     4    12 ar  
    10     6     7 ar  
    11     6    47 1   
    12     7     8 1   
    13     7    10 ar  
    14     8     9 1   
    15     9    48 1   
    16     9    49 1   
    17     9    50 1   
    18    10    11 1   
    19    10    12 ar  
    20    12    13 1   
    21    13    14 1   
    22    13    16 1   
    23    14    15 2   
    24    14    30 1   
    25    16    17 1   
    26    16    51 1   
    27    16    52 1   
    28    17    18 ar  
    29    17    29 ar  
    30    18    19 ar  
    31    18    53 1   
    32    19    20 ar  
    33    20    21 1   
    34    20    28 ar  
    35    21    22 1   
    36    21    54 1   
    37    22    23 1   
    38    22    27 1   
    39    22    55 1   
    40    23    24 1   
    41    23    56 1   
    42    23    57 1   
    43    24    25 1   
    44    24    58 1   
    45    24    59 1   
    46    25    26 1   
    47    25    60 1   
    48    25    61 1   
    49    26    27 1   
    50    26    62 1   
    51    26    63 1   
    52    27    64 1   
    53    27    65 1   
    54    28    29 ar  
    55    29    30 1   
    56    30    31 1   
    57    31    32 1   
    58    31    33 1   
    59    31    66 1   
    60    32    35 1   
    61    32    67 1   
    62    32    68 1   
    63    33    34 1   
    64    33    69 1   
    65    33    70 1   
    66    34    35 1   
    67    34    71 1   
    68    34    72 1   
    69    35    36 1   
    70    36    37 2   
    71    36    38 1   
    72    38    39 2   
    73    38    73 1   
    74    39    40 1   
    75    39    74 1   
    76    40    41 1   
    77    40    75 1   
    78    40    76 1   
    79    41    42 1   
    80    41    43 1   
    81    42    77 1   
    82    42    78 1   
    83    42    79 1   
    84    43    80 1   
    85    43    81 1   
    86    43    82 1   
@<TRIPOS>SUBSTRUCTURE
     1 YY6         1 TEMP              0 ****  ****    0 ROOT
