@<TRIPOS>MOLECULE
YY6
   82    86     1     0     0
SMALL
No Charge or Current Charge


@<TRIPOS>ATOM
      1 CAV         -3.2260     6.9380    -2.5360 c3         1 YY6       0.147900
      2 OAT         -2.3420     5.8040    -2.5470 os         1 YY6      -0.318600
      3 CAP         -1.9310     5.1640    -1.3900 ca         1 YY6       0.195600
      4 CAQ         -1.0670     4.0540    -1.5090 ca         1 YY6       0.046500
      5 ClR         -0.5930     3.4950    -3.1210 cl         1 YY6      -0.158500
      6 CAO         -2.3640     5.5850    -0.1150 ca         1 YY6      -0.281000
      7 CAN         -1.9510     4.8840     1.0380 ca         1 YY6       0.195600
      8 OAU         -2.3710     5.2510     2.3040 os         1 YY6      -0.318600
      9 CAW         -3.2520     6.3640     2.5390 c3         1 YY6       0.147900
     10 CAM         -1.0880     3.7750     0.9130 ca         1 YY6       0.046500
     11 ClS         -0.5710     2.9010     2.3650 cl         1 YY6      -0.158500
     12 CAL         -0.6030     3.3830    -0.3550 ca         1 YY6       0.041000
     13 NAI          0.1900     2.1900    -0.4710 n          1 YY6      -0.244400
     14 CAH         -0.3920     0.9070    -0.3680 c          1 YY6       0.634000
     15 OAK         -1.6080     0.8220    -0.2670 o          1 YY6      -0.545000
     16 CAJ          1.6100     2.3750    -0.8040 c6         1 YY6       0.198300
     17 C5           2.4540     1.1900    -0.4110 ca         1 YY6      -0.315300
     18 C6           3.8410     1.3110    -0.2340 ca         1 YY6       0.186900
     19 N1           4.5990     0.2490     0.0880 nb         1 YY6      -0.261000
     20 C2           3.9520    -0.9220     0.2250 ca         1 YY6       0.419900
     21 NBC          4.6860    -2.0470     0.5680 nu         1 YY6      -0.915100
     22 CBD          6.1530    -2.1380     0.6490 c6         1 YY6       0.244500
     23 CBE          6.7610    -2.2500    -0.7750 c6         1 YY6      -0.091900
     24 CBF          8.3000    -2.4290    -0.7170 c6         1 YY6      -0.071400
     25 CBG          8.6890    -3.6530     0.1490 c6         1 YY6      -0.078400
     26 CBH          8.0770    -3.5530     1.5690 c6         1 YY6      -0.071400
     27 CBI          6.5390    -3.3740     1.5030 c6         1 YY6      -0.091900
     28 N3           2.6380    -1.1350     0.0780 nb         1 YY6      -0.309000
     29 C4           1.8770    -0.0730    -0.2580 ca         1 YY6       0.314900
     30 NAG          0.4550    -0.2410    -0.3630 n          1 YY6      -0.389300
     31 CAX         -0.1290    -1.6400    -0.3320 c5         1 YY6       0.105700
     32 CBB         -1.2070    -1.8930    -1.4260 c5         1 YY6       0.094000
     33 CAY         -0.8570    -1.9050     1.0090 c5         1 YY6      -0.108400
     34 CAZ         -1.6590    -3.1840     0.6480 c5         1 YY6       0.112000
     35 NBA         -1.9850    -2.9820    -0.7880 n          1 YY6      -0.413800
     36 CBJ         -2.9340    -3.7390    -1.5010 c          1 YY6       0.610300
     37 OBK         -3.2010    -3.4620    -2.6630 o          1 YY6      -0.615100
     38 CBL         -3.6600    -4.8320    -0.7870 ce         1 YY6      -0.295200
     39 CBM         -4.8590    -5.3260    -1.1830 c2         1 YY6      -0.132200
     40 CBN         -5.6600    -6.3930    -0.4630 c3         1 YY6       0.186000
     41 NBO         -5.8850    -6.0730     0.9680 n3         1 YY6      -0.704600
     42 CBQ         -6.6620    -4.8280     1.1760 c3         1 YY6       0.147100
     43 CBP         -6.4520    -7.2160     1.7170 c3         1 YY6       0.147100
     44 H1          -3.4150     7.2810    -3.5600 h1         1 YY6       0.045867
     45 H2          -4.1910     6.6770    -2.0820 h1         1 YY6       0.045867
     46 H3          -2.7850     7.7720    -1.9750 h1         1 YY6       0.045867
     47 H4          -3.0270     6.4370    -0.0220 ha         1 YY6       0.127000
     48 H5          -3.4510     6.4700     3.6130 h1         1 YY6       0.045867
     49 H6          -2.8020     7.2990     2.1830 h1         1 YY6       0.045867
     50 H7          -4.2120     6.2160     2.0290 h1         1 YY6       0.045867
     51 H8           1.7130     2.5390    -1.8850 h1         1 YY6       0.057700
     52 H9           1.9840     3.2740    -0.2940 h1         1 YY6       0.057700
     53 H10          4.3530     2.2640    -0.3540 h4         1 YY6       0.022100
     54 H11          4.1400    -2.9030     0.6530 hn         1 YY6       0.500000
     55 H12          6.5670    -1.2460     1.1460 h1         1 YY6       0.081700
     56 H13          6.3140    -3.1010    -1.3070 hc         1 YY6       0.046700
     57 H14          6.5200    -1.3540    -1.3610 hc         1 YY6       0.046700
     58 H15          8.7000    -2.5480    -1.7330 hc         1 YY6       0.043450
     59 H16          8.7620    -1.5210    -0.3040 hc         1 YY6       0.043450
     60 H17          8.3440    -4.5750    -0.3380 hc         1 YY6       0.040700
     61 H18          9.7830    -3.7270     0.2190 hc         1 YY6       0.040700
     62 H19          8.3230    -4.4560     2.1450 hc         1 YY6       0.043450
     63 H20          8.5260    -2.7070     2.1070 hc         1 YY6       0.043450
     64 H21          6.1380    -3.2650     2.5200 hc         1 YY6       0.046700
     65 H22          6.0840    -4.2810     1.0810 hc         1 YY6       0.046700
     66 H23          0.6450    -2.4070    -0.4690 h1         1 YY6       0.084700
     67 H24         -1.8600    -1.0430    -1.6450 h1         1 YY6       0.071200
     68 H25         -0.7470    -2.2130    -2.3700 h1         1 YY6       0.071200
     69 H26         -0.1650    -2.0640     1.8430 hc         1 YY6       0.072700
     70 H27         -1.5390    -1.1010     1.3000 hc         1 YY6       0.072700
     71 H28         -1.0480    -4.0880     0.7760 h1         1 YY6       0.044700
     72 H29         -2.5580    -3.2800     1.2710 h1         1 YY6       0.044700
     73 H30         -3.2290    -5.1840     0.1460 ha         1 YY6       0.175000
     74 H31         -5.3380    -4.9620    -2.0940 ha         1 YY6       0.197000
     75 H32         -6.6230    -6.5300    -0.9750 h1         1 YY6       0.039200
     76 H33         -5.1140    -7.3430    -0.5490 h1         1 YY6       0.039200
     77 H35         -7.6690    -4.9180     0.7460 h1         1 YY6       0.032033
     78 H36         -6.7650    -4.6100     2.2470 h1         1 YY6       0.032033
     79 H37         -6.1640    -3.9680     0.7090 h1         1 YY6       0.032033
     80 H38         -5.8110    -8.1030     1.6160 h1         1 YY6       0.032033
     81 H39         -6.5320    -6.9790     2.7860 h1         1 YY6       0.032033
     82 H40         -7.4530    -7.4710     1.3450 h1         1 YY6       0.032033
@<TRIPOS>BOND
     1     1     2 1   
     2     1    44 1   
     3     1    45 1   
     4     1    46 1   
     5     2     3 1   
     6     3     4 ar  
     7     3     6 ar  
     8     4     5 1   
     9     4    12 ar  
    10     6     7 ar  
    11     6    47 1   
    12     7     8 1   
    13     7    10 ar  
    14     8     9 1   
    15     9    48 1   
    16     9    49 1   
    17     9    50 1   
    18    10    11 1   
    19    10    12 ar  
    20    12    13 1   
    21    13    14 1   
    22    13    16 1   
    23    14    15 2   
    24    14    30 1   
    25    16    17 1   
    26    16    51 1   
    27    16    52 1   
    28    17    18 ar  
    29    17    29 ar  
    30    18    19 ar  
    31    18    53 1   
    32    19    20 ar  
    33    20    21 1   
    34    20    28 ar  
    35    21    22 1   
    36    21    54 1   
    37    22    23 1   
    38    22    27 1   
    39    22    55 1   
    40    23    24 1   
    41    23    56 1   
    42    23    57 1   
    43    24    25 1   
    44    24    58 1   
    45    24    59 1   
    46    25    26 1   
    47    25    60 1   
    48    25    61 1   
    49    26    27 1   
    50    26    62 1   
    51    26    63 1   
    52    27    64 1   
    53    27    65 1   
    54    28    29 ar  
    55    29    30 1   
    56    30    31 1   
    57    31    32 1   
    58    31    33 1   
    59    31    66 1   
    60    32    35 1   
    61    32    67 1   
    62    32    68 1   
    63    33    34 1   
    64    33    69 1   
    65    33    70 1   
    66    34    35 1   
    67    34    71 1   
    68    34    72 1   
    69    35    36 1   
    70    36    37 2   
    71    36    38 1   
    72    38    39 2   
    73    38    73 1   
    74    39    40 1   
    75    39    74 1   
    76    40    41 1   
    77    40    75 1   
    78    40    76 1   
    79    41    42 1   
    80    41    43 1   
    81    42    77 1   
    82    42    78 1   
    83    42    79 1   
    84    43    80 1   
    85    43    81 1   
    86    43    82 1   
@<TRIPOS>SUBSTRUCTURE
     1 YY6         1 TEMP              0 ****  ****    0 ROOT
