@<TRIPOS>MOLECULE
YY7
   69    72     1     0     0
SMALL
No Charge or Current Charge


@<TRIPOS>ATOM
      1 CAI         -4.8290     4.8800     2.6220 c3         1 YY7       0.147900
      2 OAG         -4.2070     3.5830     2.5920 os         1 YY7      -0.319100
      3 CAA         -3.8220     2.9660     1.4150 ca         1 YY7       0.196600
      4 CAB         -3.2130     1.6950     1.4930 ca         1 YY7       0.046000
      5 ClJ         -2.9160     0.9740     3.0830 cl         1 YY7      -0.158500
      6 CAF         -4.0110     3.5790     0.1580 ca         1 YY7      -0.281000
      7 CAE         -3.5730     2.9320    -1.0160 ca         1 YY7       0.196600
      8 OAH         -3.7190     3.5090    -2.2660 os         1 YY7      -0.319100
      9 CAJ         -4.3240     4.7990    -2.4590 c3         1 YY7       0.147900
     10 CAD         -2.9630     1.6620    -0.9320 ca         1 YY7       0.046000
     11 ClK         -2.4160     0.8540    -2.4110 cl         1 YY7      -0.158500
     12 CAC         -2.8230     1.0160     0.3160 ca         1 YY7       0.041000
     13 NAK         -2.1080    -0.2290     0.3920 n          1 YY7      -0.243400
     14 CAP         -0.7000    -0.2760     0.2850 c          1 YY7       0.633000
     15 OBL         -0.0820     0.7780     0.2140 o          1 YY7      -0.542000
     16 CAL         -2.9050    -1.4270     0.6910 c6         1 YY7       0.196300
     17 C5          -2.2200    -2.6990     0.2600 ca         1 YY7      -0.313300
     18 C6          -2.9460    -3.8820     0.0530 ca         1 YY7       0.186900
     19 N1          -2.3340    -5.0250    -0.3030 nb         1 YY7      -0.262000
     20 C2          -0.9990    -4.9600    -0.4450 ca         1 YY7       0.417900
     21 NAU         -0.3290    -6.1130    -0.8160 nu         1 YY7      -0.923100
     22 CAV         -0.9120    -7.4420    -1.0830 c3         1 YY7       0.233100
     23 N3          -0.2210    -3.8840    -0.2680 nb         1 YY7      -0.307000
     24 C4          -0.8330    -2.7400     0.1030 ca         1 YY7       0.314900
     25 NAO         -0.0490    -1.5440     0.2400 n          1 YY7      -0.389300
     26 CAW          1.4640    -1.6430     0.2010 c5         1 YY7       0.106700
     27 CBA          2.1730    -0.8230     1.3190 c5         1 YY7       0.095000
     28 CAX          2.0210    -1.0670    -1.1240 c5         1 YY7      -0.109400
     29 CAY          3.5250    -0.9280    -0.7630 c5         1 YY7       0.112000
     30 NAZ          3.4920    -0.5890     0.6840 n          1 YY7      -0.413800
     31 CBB          4.5940    -0.0970     1.4100 c          1 YY7       0.611300
     32 OBC          4.4670     0.2300     2.5830 o          1 YY7      -0.614100
     33 CBD          5.8930     0.0900     0.6970 ce         1 YY7      -0.293200
     34 CBE          6.8690     0.9330     1.1160 c2         1 YY7      -0.133200
     35 CBF          8.1790     1.1990     0.4000 c3         1 YY7       0.186000
     36 NBG          7.9880     1.5850    -1.0190 n3         1 YY7      -0.706600
     37 CBI          7.2150     2.8380    -1.1890 c3         1 YY7       0.147600
     38 CBH          9.2620     1.6070    -1.7710 c3         1 YY7       0.147600
     39 H1          -4.1680     5.6410     2.1880 h1         1 YY7       0.045700
     40 H2          -5.7740     4.8730     2.0650 h1         1 YY7       0.045700
     41 H3          -5.0480     5.1710     3.6570 h1         1 YY7       0.045700
     42 H4          -4.4800     4.5540     0.0960 ha         1 YY7       0.127000
     43 H5          -5.3600     4.8030    -2.0990 h1         1 YY7       0.045700
     44 H6          -3.7610     5.5780    -1.9280 h1         1 YY7       0.045700
     45 H7          -4.3340     5.0570    -3.5260 h1         1 YY7       0.045700
     46 H8          -3.0980    -1.4770     1.7710 h1         1 YY7       0.057700
     47 H9          -3.8770    -1.3460     0.1830 h1         1 YY7       0.057700
     48 H10         -4.0280    -3.9200     0.1750 h4         1 YY7       0.023100
     49 H11          0.6830    -6.0120    -0.9140 hn         1 YY7       0.509000
     50 H12         -1.6340    -7.3880    -1.9090 h1         1 YY7       0.042700
     51 H13         -0.1260    -8.1590    -1.3580 h1         1 YY7       0.042700
     52 H14         -1.4300    -7.8220    -0.1920 h1         1 YY7       0.042700
     53 H15          1.8080    -2.6800     0.3060 h1         1 YY7       0.084700
     54 H16          1.7010     0.1320     1.5690 h1         1 YY7       0.070700
     55 H17          2.2590    -1.4060     2.2450 h1         1 YY7       0.070700
     56 H18          1.8550    -1.7320    -1.9780 hc         1 YY7       0.072200
     57 H19          1.6030    -0.0910    -1.3850 hc         1 YY7       0.072200
     58 H20          4.0630    -1.8730    -0.9210 h1         1 YY7       0.045200
     59 H21          4.0080    -0.1460    -1.3640 h1         1 YY7       0.045200
     60 H22          6.0150    -0.4240    -0.2520 ha         1 YY7       0.175000
     61 H23          6.7580     1.4960     2.0450 ha         1 YY7       0.197000
     62 H24          8.7300     1.9870     0.9340 h1         1 YY7       0.039200
     63 H25          8.7890     0.2870     0.4590 h1         1 YY7       0.039200
     64 H27          7.7440     3.6880    -0.7360 h1         1 YY7       0.032033
     65 H28          7.0630     3.0580    -2.2540 h1         1 YY7       0.032033
     66 H29          6.2250     2.7600    -0.7220 h1         1 YY7       0.032033
     67 H30          9.7730     0.6380    -1.7000 h1         1 YY7       0.032033
     68 H31          9.0820     1.8150    -2.8350 h1         1 YY7       0.032033
     69 H32          9.9350     2.3810    -1.3790 h1         1 YY7       0.032033
@<TRIPOS>BOND
     1     1     2 1   
     2     1    39 1   
     3     1    40 1   
     4     1    41 1   
     5     2     3 1   
     6     3     4 ar  
     7     3     6 ar  
     8     4     5 1   
     9     4    12 ar  
    10     6     7 ar  
    11     6    42 1   
    12     7     8 1   
    13     7    10 ar  
    14     8     9 1   
    15     9    43 1   
    16     9    44 1   
    17     9    45 1   
    18    10    11 1   
    19    10    12 ar  
    20    12    13 1   
    21    13    14 1   
    22    13    16 1   
    23    14    15 2   
    24    14    25 1   
    25    16    17 1   
    26    16    46 1   
    27    16    47 1   
    28    17    18 ar  
    29    17    24 ar  
    30    18    19 ar  
    31    18    48 1   
    32    19    20 ar  
    33    20    21 1   
    34    20    23 ar  
    35    21    22 1   
    36    21    49 1   
    37    22    50 1   
    38    22    51 1   
    39    22    52 1   
    40    23    24 ar  
    41    24    25 1   
    42    25    26 1   
    43    26    27 1   
    44    26    28 1   
    45    26    53 1   
    46    27    30 1   
    47    27    54 1   
    48    27    55 1   
    49    28    29 1   
    50    28    56 1   
    51    28    57 1   
    52    29    30 1   
    53    29    58 1   
    54    29    59 1   
    55    30    31 1   
    56    31    32 2   
    57    31    33 1   
    58    33    34 2   
    59    33    60 1   
    60    34    35 1   
    61    34    61 1   
    62    35    36 1   
    63    35    62 1   
    64    35    63 1   
    65    36    37 1   
    66    36    38 1   
    67    37    64 1   
    68    37    65 1   
    69    37    66 1   
    70    38    67 1   
    71    38    68 1   
    72    38    69 1   
@<TRIPOS>SUBSTRUCTURE
     1 YY7         1 TEMP              0 ****  ****    0 ROOT
