@<TRIPOS>MOLECULE
YY7
   69    72     1     0     0
SMALL
abcg2


@<TRIPOS>ATOM
      1 CAI         -3.8460     5.2430     2.1330 c3         1 YY7       0.147900
      2 OAG         -3.1730     3.9950     2.1350 os         1 YY7      -0.319100
      3 CAA         -3.3590     3.1580     1.1130 ca         1 YY7       0.196600
      4 CAB         -2.6660     1.9480     1.1630 ca         1 YY7       0.046000
      5 CLJ         -1.6390     1.6110     2.5030 cl         1 YY7      -0.158500
      6 CAF         -4.1920     3.4210     0.0290 ca         1 YY7      -0.281000
      7 CAE         -4.3330     2.4960    -1.0020 ca         1 YY7       0.196600
      8 OAH         -5.1070     2.6790    -2.0720 os         1 YY7      -0.319100
      9 CAJ         -5.8370     3.8880    -2.1940 c3         1 YY7       0.147900
     10 CAD         -3.6270     1.2930    -0.9380 ca         1 YY7       0.046000
     11 CLK         -3.7920     0.1400    -2.2050 cl         1 YY7      -0.158500
     12 CAC         -2.7970     1.0190     0.1400 ca         1 YY7       0.041000
     13 NAK         -2.1360    -0.2220     0.2090 n          1 YY7      -0.243400
     14 CAP         -0.8070    -0.2430    -0.0850 c          1 YY7       0.633000
     15 OBL         -0.2190     0.7540    -0.4530 o          1 YY7      -0.542000
     16 CAL         -2.8340    -1.3210     0.8590 c6         1 YY7       0.196300
     17 C5          -2.2610    -2.5990     0.3630 ca         1 YY7      -0.313300
     18 C6          -2.9400    -3.7910     0.2480 ca         1 YY7       0.186900
     19 N1          -2.3690    -4.9300    -0.1250 nb         1 YY7      -0.262000
     20 C2          -1.0630    -4.8680    -0.3920 ca         1 YY7       0.417900
     21 NAU         -0.4380    -6.0000    -0.7450 nu         1 YY7      -0.923100
     22 CAV         -1.0950    -7.2780    -0.8480 c3         1 YY7       0.233100
     23 N3          -0.3120    -3.7560    -0.3520 nb         1 YY7      -0.307000
     24 C4          -0.9090    -2.6470     0.0170 ca         1 YY7       0.314900
     25 NAO         -0.1680    -1.4720     0.0440 n          1 YY7      -0.389300
     26 CAW          1.2820    -1.5510    -0.0810 c5         1 YY7       0.106700
     27 CBA          2.0600    -0.6530     0.8870 c5         1 YY7       0.095000
     28 CAX          1.8840    -1.2680    -1.4530 c5         1 YY7      -0.109400
     29 CAY          3.3590    -1.0850    -1.1250 c5         1 YY7       0.112000
     30 NAZ          3.3450    -0.5120     0.2210 n          1 YY7      -0.413800
     31 CBB          4.3690     0.0960     0.8460 c          1 YY7       0.611300
     32 OBC          4.2310     0.5970     1.9590 o          1 YY7      -0.614100
     33 CBD          5.6680     0.1280     0.1260 ce         1 YY7      -0.293200
     34 CBE          6.6910     0.8450     0.5840 c2         1 YY7      -0.133200
     35 CBF          8.0320     0.8930    -0.0770 c3         1 YY7       0.186000
     36 NBG          8.4560     2.2520    -0.3750 n3         1 YY7      -0.706600
     37 CBI          8.8190     2.9880     0.8180 c3         1 YY7       0.147600
     38 CBH          9.5460     2.2540    -1.3280 c3         1 YY7       0.147600
     39 H1          -3.5680     5.8500     1.2680 h1         1 YY7       0.045700
     40 H2          -4.9310     5.1170     2.1510 h1         1 YY7       0.045700
     41 H3          -3.5350     5.7560     3.0380 h1         1 YY7       0.045700
     42 H4          -4.7380     4.3520    -0.0090 ha         1 YY7       0.127000
     43 H5          -6.5500     4.0140    -1.3770 h1         1 YY7       0.045700
     44 H6          -5.1760     4.7570    -2.2310 h1         1 YY7       0.045700
     45 H7          -6.3810     3.8200    -3.1310 h1         1 YY7       0.045700
     46 H8          -2.7420    -1.2340     1.9480 h1         1 YY7       0.057700
     47 H9          -3.8940    -1.2510     0.6180 h1         1 YY7       0.057700
     48 H10         -4.0000    -3.8350     0.4770 h4         1 YY7       0.023100
     49 H11          0.5460    -5.9390    -0.9370 hn         1 YY7       0.509000
     50 H12         -1.9100    -7.2580    -1.5730 h1         1 YY7       0.042700
     51 H13         -0.3610    -8.0090    -1.1770 h1         1 YY7       0.042700
     52 H14         -1.5020    -7.6080     0.1090 h1         1 YY7       0.042700
     53 H15          1.5280    -2.5810     0.1730 h1         1 YY7       0.084700
     54 H16          1.5960     0.3190     1.0470 h1         1 YY7       0.070700
     55 H17          2.1720    -1.1310     1.8610 h1         1 YY7       0.070700
     56 H18          1.7220    -2.0890    -2.1500 hc         1 YY7       0.072200
     57 H19          1.4760    -0.3580    -1.8880 hc         1 YY7       0.072200
     58 H20          3.8890    -2.0410    -1.1360 h1         1 YY7       0.045200
     59 H21          3.8480    -0.4210    -1.8360 h1         1 YY7       0.045200
     60 H22          5.7850    -0.4520    -0.7820 ha         1 YY7       0.175000
     61 H23          6.5610     1.4180     1.4970 ha         1 YY7       0.197000
     62 H24          8.7640     0.3720     0.5660 h1         1 YY7       0.039200
     63 H25          7.9890     0.3300    -1.0130 h1         1 YY7       0.039200
     64 H27          9.6670     2.5380     1.3600 h1         1 YY7       0.032033
     65 H28          9.0970     4.0080     0.5520 h1         1 YY7       0.032033
     66 H29          7.9810     3.0530     1.5120 h1         1 YY7       0.032033
     67 H30          9.2420     1.7540    -2.2480 h1         1 YY7       0.032033
     68 H31          9.8150     3.2800    -1.5800 h1         1 YY7       0.032033
     69 H32         10.4530     1.7530    -0.9560 h1         1 YY7       0.032033
@<TRIPOS>BOND
     1     1     2 1   
     2     1    39 1   
     3     1    40 1   
     4     1    41 1   
     5     2     3 1   
     6     3     4 ar  
     7     3     6 ar  
     8     4     5 1   
     9     4    12 ar  
    10     6     7 ar  
    11     6    42 1   
    12     7     8 1   
    13     7    10 ar  
    14     8     9 1   
    15     9    43 1   
    16     9    44 1   
    17     9    45 1   
    18    10    11 1   
    19    10    12 ar  
    20    12    13 1   
    21    13    14 1   
    22    13    16 1   
    23    14    15 2   
    24    14    25 1   
    25    16    17 1   
    26    16    46 1   
    27    16    47 1   
    28    17    18 ar  
    29    17    24 ar  
    30    18    19 ar  
    31    18    48 1   
    32    19    20 ar  
    33    20    21 1   
    34    20    23 ar  
    35    21    22 1   
    36    21    49 1   
    37    22    50 1   
    38    22    51 1   
    39    22    52 1   
    40    23    24 ar  
    41    24    25 1   
    42    25    26 1   
    43    26    27 1   
    44    26    28 1   
    45    26    53 1   
    46    27    30 1   
    47    27    54 1   
    48    27    55 1   
    49    28    29 1   
    50    28    56 1   
    51    28    57 1   
    52    29    30 1   
    53    29    58 1   
    54    29    59 1   
    55    30    31 1   
    56    31    32 2   
    57    31    33 1   
    58    33    34 2   
    59    33    60 1   
    60    34    35 1   
    61    34    61 1   
    62    35    36 1   
    63    35    62 1   
    64    35    63 1   
    65    36    37 1   
    66    36    38 1   
    67    37    64 1   
    68    37    65 1   
    69    37    66 1   
    70    38    67 1   
    71    38    68 1   
    72    38    69 1   
@<TRIPOS>SUBSTRUCTURE
     1 YY7         1 TEMP              0 ****  ****    0 ROOT
