@<TRIPOS>MOLECULE
YY9
   79    83     1     0     0
SMALL
No Charge or Current Charge


@<TRIPOS>ATOM
      1 CAI          0.3370     7.1950    -2.3000 c3         1 YY9       0.147900
      2 OAH         -0.0960     5.8440    -2.0620 os         1 YY9      -0.319600
      3 CAE         -0.0520     5.2540    -0.8110 ca         1 YY9       0.196600
      4 CAD         -0.4980     3.9220    -0.6820 ca         1 YY9       0.046500
      5 ClL         -1.1000     3.0600    -2.1090 cl         1 YY9      -0.160000
      6 CAF          0.4250     5.9470     0.3210 ca         1 YY9      -0.280000
      7 CAA          0.4750     5.3000     1.5740 ca         1 YY9       0.196600
      8 OAG          0.9700     5.9340     2.7010 os         1 YY9      -0.319600
      9 CAJ          1.4590     7.2870     2.6810 c3         1 YY9       0.147900
     10 CAB          0.0270     3.9680     1.6980 ca         1 YY9       0.046500
     11 ClK          0.1710     3.1490     3.2620 cl         1 YY9      -0.160000
     12 CAC         -0.5080     3.2880     0.5800 ca         1 YY9       0.041000
     13 NAM         -0.8650     1.8970     0.6700 n          1 YY9      -0.246400
     14 CAR          0.0050     0.8830     0.2160 c          1 YY9       0.634000
     15 OAW          1.1260     1.1840    -0.1750 o          1 YY9      -0.542000
     16 CAN         -2.1250     1.5790     1.3570 c6         1 YY9       0.194300
     17 C5          -2.6810     0.2370     0.9470 ca         1 YY9      -0.302300
     18 C6          -4.0430    -0.0660     1.1030 ca         1 YY9       0.181900
     19 N1          -4.5340    -1.2680     0.7570 nb         1 YY9      -0.248000
     20 C2          -3.6540    -2.1470     0.2500 ca         1 YY9       0.421900
     21 NAX         -4.0950    -3.4130    -0.1030 nu         1 YY9      -0.924900
     22 CAY         -5.3480    -4.0260    -0.2070 ca         1 YY9       0.314000
     23 CAZ         -6.5260    -3.2990    -0.4700 ca         1 YY9      -0.151500
     24 CBA         -7.7630    -3.9600    -0.5810 ca         1 YY9      -0.083000
     25 CBB         -7.8280    -5.3550    -0.4370 ca         1 YY9      -0.138000
     26 CBC         -6.6570    -6.0900    -0.1900 ca         1 YY9      -0.083000
     27 CBD         -5.4230    -5.4250    -0.0810 ca         1 YY9      -0.151500
     28 N3          -2.3390    -1.9550     0.0780 nb         1 YY9      -0.305000
     29 C4          -1.8380    -0.7550     0.4410 ca         1 YY9       0.315900
     30 NAQ         -0.4480    -0.4610     0.2060 n          1 YY9      -0.393300
     31 CBE          0.4750    -1.5730    -0.2120 c6         1 YY9       0.128700
     32 CBJ          1.7560    -1.7070     0.6600 c6         1 YY9      -0.112400
     33 CBI          2.5890    -2.9190     0.1860 c6         1 YY9       0.101500
     34 CBF          0.7810    -1.5720    -1.7340 c6         1 YY9      -0.112400
     35 CBG          1.6830    -2.7710    -2.1130 c6         1 YY9       0.101500
     36 NBH          2.9020    -2.7850    -1.2620 n          1 YY9      -0.408800
     37 CBK          4.1940    -2.5640    -1.7960 c          1 YY9       0.618300
     38 OBL          4.3840    -2.6000    -3.0050 o          1 YY9      -0.614100
     39 CBM          5.3460    -2.3740    -0.8650 ce         1 YY9      -0.295200
     40 CBN          6.6140    -2.7600    -1.1480 c2         1 YY9      -0.130200
     41 H1           1.3970     7.3160    -2.0440 h1         1 YY9       0.046200
     42 H2           0.2130     7.4510    -3.3600 h1         1 YY9       0.046200
     43 H3          -0.2540     7.9040    -1.7080 h1         1 YY9       0.046200
     44 H4           0.7680     6.9700     0.2250 ha         1 YY9       0.128000
     45 H5           2.3060     7.3860     1.9910 h1         1 YY9       0.046200
     46 H6           0.6680     7.9830     2.3730 h1         1 YY9       0.046200
     47 H7           1.8000     7.5820     3.6810 h1         1 YY9       0.046200
     48 H8          -1.9590     1.5750     2.4430 h1         1 YY9       0.058200
     49 H9          -2.8630     2.3640     1.1370 h1         1 YY9       0.058200
     50 H10         -4.7480     0.6560     1.5110 h4         1 YY9       0.025100
     51 H11         -3.3160    -4.0530    -0.2530 hn         1 YY9       0.510000
     52 H12         -6.4930    -2.2240    -0.6100 ha         1 YY9       0.129500
     53 H13         -8.6680    -3.3910    -0.7850 ha         1 YY9       0.113000
     54 H14         -8.7840    -5.8680    -0.5240 ha         1 YY9       0.115000
     55 H15         -6.7050    -7.1720    -0.0840 ha         1 YY9       0.113000
     56 H16         -4.5220    -6.0020     0.1120 ha         1 YY9       0.129500
     57 H17         -0.0360    -2.5280    -0.0310 h1         1 YY9       0.075700
     58 H18          2.3820    -0.8090     0.6010 hc         1 YY9       0.067700
     59 H19          1.4810    -1.8340     1.7160 hc         1 YY9       0.067700
     60 H20          3.4890    -3.0330     0.8020 h1         1 YY9       0.055200
     61 H21          2.0020    -3.8370     0.3330 h1         1 YY9       0.055200
     62 H22         -0.1550    -1.6150    -2.3070 hc         1 YY9       0.067700
     63 H23          1.2850    -0.6410    -2.0240 hc         1 YY9       0.067700
     64 H24          1.1310    -3.7110    -1.9650 h1         1 YY9       0.055200
     65 H25          1.9420    -2.7120    -3.1790 h1         1 YY9       0.055200
     66 H26          5.1250    -1.9770     0.1210 ha         1 YY9       0.177000
     67 H28          6.8590    -3.2000    -2.1160 ha         1 YY9       0.197000
     68 C1           7.8050    -2.6410    -0.2170 c3         1 YY9       0.184000
     69 N2           7.5510    -3.2380     1.1170 n3         1 YY9      -0.705600
     70 C7           7.2690    -4.6920     1.0660 c3         1 YY9       0.147100
     71 C8           8.6140    -2.9090     2.0920 c3         1 YY9       0.147100
     72 H27          8.6780    -3.1190    -0.6830 h1         1 YY9       0.040700
     73 H29          8.0450    -1.5750    -0.1070 h1         1 YY9       0.040700
     74 H30          8.1320    -5.2450     0.6710 h1         1 YY9       0.032200
     75 H31          7.0440    -5.0780     2.0700 h1         1 YY9       0.032200
     76 H32          6.4010    -4.9050     0.4270 h1         1 YY9       0.032200
     77 H33          8.7440    -1.8220     2.1740 h1         1 YY9       0.032200
     78 H34          8.3600    -3.2940     3.0880 h1         1 YY9       0.032200
     79 H35          9.5740    -3.3480     1.7880 h1         1 YY9       0.032200
@<TRIPOS>BOND
     1     1     2 1   
     2     1    41 1   
     3     1    42 1   
     4     1    43 1   
     5     2     3 1   
     6     3     4 ar  
     7     3     6 ar  
     8     4     5 1   
     9     4    12 ar  
    10     6     7 ar  
    11     6    44 1   
    12     7     8 1   
    13     7    10 ar  
    14     8     9 1   
    15     9    45 1   
    16     9    46 1   
    17     9    47 1   
    18    10    11 1   
    19    10    12 ar  
    20    12    13 1   
    21    13    14 1   
    22    13    16 1   
    23    14    15 2   
    24    14    30 1   
    25    16    17 1   
    26    16    48 1   
    27    16    49 1   
    28    17    18 ar  
    29    17    29 ar  
    30    18    19 ar  
    31    18    50 1   
    32    19    20 ar  
    33    20    21 1   
    34    20    28 ar  
    35    21    22 1   
    36    21    51 1   
    37    22    23 ar  
    38    22    27 ar  
    39    23    24 ar  
    40    23    52 1   
    41    24    25 ar  
    42    24    53 1   
    43    25    26 ar  
    44    25    54 1   
    45    26    27 ar  
    46    26    55 1   
    47    27    56 1   
    48    28    29 ar  
    49    29    30 1   
    50    30    31 1   
    51    31    32 1   
    52    31    34 1   
    53    31    57 1   
    54    32    33 1   
    55    32    58 1   
    56    32    59 1   
    57    33    36 1   
    58    33    60 1   
    59    33    61 1   
    60    34    35 1   
    61    34    62 1   
    62    34    63 1   
    63    35    36 1   
    64    35    64 1   
    65    35    65 1   
    66    36    37 1   
    67    37    38 2   
    68    37    39 1   
    69    39    40 2   
    70    39    66 1   
    71    40    67 1   
    72    40    68 1   
    73    68    69 1   
    74    68    72 1   
    75    68    73 1   
    76    69    70 1   
    77    69    71 1   
    78    70    74 1   
    79    70    75 1   
    80    70    76 1   
    81    71    77 1   
    82    71    78 1   
    83    71    79 1   
@<TRIPOS>SUBSTRUCTURE
     1 YY9         1 TEMP              0 ****  ****    0 ROOT
