@<TRIPOS>MOLECULE
YY9
   79    83     1     0     0
SMALL
abcg2


@<TRIPOS>ATOM
      1 CAI         -0.2140     7.2690    -2.2250 c3         1 YY9       0.147900
      2 OAH         -0.6570     5.9330    -2.0540 os         1 YY9      -0.319600
      3 CAE         -0.3050     5.2710    -0.9510 ca         1 YY9       0.196600
      4 CAD         -0.7630     3.9580    -0.8340 ca         1 YY9       0.046500
      5 CLL         -1.7350     3.2790    -2.0800 cl         1 YY9      -0.160000
      6 CAF          0.4790     5.8090     0.0660 ca         1 YY9      -0.280000
      7 CAA          0.8070     5.0560     1.1900 ca         1 YY9       0.196600
      8 OAG          1.5500     5.5060     2.2030 os         1 YY9      -0.319600
      9 CAJ          2.0330     6.8390     2.1620 c3         1 YY9       0.147900
     10 CAB          0.3390     3.7450     1.2900 ca         1 YY9       0.046500
     11 CLK          0.7410     2.8020     2.6720 cl         1 YY9      -0.160000
     12 CAC         -0.4400     3.1970     0.2810 ca         1 YY9       0.041000
     13 NAM         -0.9510     1.8900     0.3980 n          1 YY9      -0.246400
     14 CAR         -0.1140     0.8610     0.0890 c          1 YY9       0.634000
     15 OAW          1.0240     1.0600    -0.2850 o          1 YY9      -0.542000
     16 CAN         -2.2170     1.7210     1.0920 c6         1 YY9       0.194300
     17 C5          -2.8370     0.4490     0.6380 ca         1 YY9      -0.302300
     18 C6          -4.1850     0.1890     0.6110 ca         1 YY9       0.181900
     19 N1          -4.7000    -0.9930     0.2820 nb         1 YY9      -0.248000
     20 C2          -3.8260    -1.9400    -0.0260 ca         1 YY9       0.421900
     21 NAX         -4.2450    -3.1950    -0.3400 nu         1 YY9      -0.924900
     22 CAY         -5.5120    -3.7680    -0.3720 ca         1 YY9       0.314000
     23 CAZ         -6.7100    -3.0820    -0.1550 ca         1 YY9      -0.151500
     24 CBA         -7.9170    -3.7670    -0.2170 ca         1 YY9      -0.083000
     25 CBB         -7.9670    -5.1240    -0.4940 ca         1 YY9      -0.138000
     26 CBC         -6.7750    -5.8060    -0.7100 ca         1 YY9      -0.083000
     27 CBD         -5.5640    -5.1400    -0.6500 ca         1 YY9      -0.151500
     28 N3          -2.4980    -1.7870    -0.0770 nb         1 YY9      -0.305000
     29 C4          -2.0110    -0.6100     0.2490 ca         1 YY9       0.315900
     30 NAQ         -0.6400    -0.4210     0.1960 n          1 YY9      -0.393300
     31 CBE          0.2380    -1.5870     0.0220 c6         1 YY9       0.128700
     32 CBJ          1.3740    -1.6330     1.0400 c6         1 YY9      -0.112400
     33 CBI          2.1570    -2.9260     0.8430 c6         1 YY9       0.101500
     34 CBF          0.7360    -1.7830    -1.4080 c6         1 YY9      -0.112400
     35 CBG          1.5740    -3.0560    -1.4940 c6         1 YY9       0.101500
     36 NBH          2.6520    -3.0220    -0.5190 n          1 YY9      -0.408800
     37 CBK          3.9420    -2.9530    -0.9220 c          1 YY9       0.618300
     38 OBL          4.2530    -3.0510    -2.1060 o          1 YY9      -0.614100
     39 CBM          4.9900    -2.7570     0.1150 ce         1 YY9      -0.295200
     40 CBN          6.2800    -2.8880    -0.1890 c2         1 YY9      -0.130200
     41 H1           0.8760     7.3330    -2.2580 h1         1 YY9       0.046200
     42 H2          -0.6160     7.6010    -3.1780 h1         1 YY9       0.046200
     43 H3          -0.5890     7.9230    -1.4350 h1         1 YY9       0.046200
     44 H4           0.8370     6.8250    -0.0200 ha         1 YY9       0.128000
     45 H5           2.7150     6.9960     1.3230 h1         1 YY9       0.046200
     46 H6           1.2170     7.5630     2.1010 h1         1 YY9       0.046200
     47 H7           2.5740     6.9940     3.0910 h1         1 YY9       0.046200
     48 H8          -2.0590     1.7210     2.1760 h1         1 YY9       0.058200
     49 H9          -2.8600     2.5700     0.8590 h1         1 YY9       0.058200
     50 H10         -4.8940     0.9660     0.8780 h4         1 YY9       0.025100
     51 H11         -3.4830    -3.8220    -0.5490 hn         1 YY9       0.510000
     52 H12         -6.7000    -2.0260     0.0600 ha         1 YY9       0.129500
     53 H13         -8.8340    -3.2170    -0.0440 ha         1 YY9       0.113000
     54 H14         -8.9140    -5.6440    -0.5420 ha         1 YY9       0.115000
     55 H15         -6.7840    -6.8670    -0.9240 ha         1 YY9       0.113000
     56 H16         -4.6440    -5.6880    -0.8180 ha         1 YY9       0.129500
     57 H17         -0.4080    -2.4380     0.2400 h1         1 YY9       0.075700
     58 H18          2.0510    -0.7860     0.9350 hc         1 YY9       0.067700
     59 H19          0.9640    -1.6110     2.0520 hc         1 YY9       0.067700
     60 H20          2.9610    -3.0000     1.5670 h1         1 YY9       0.055200
     61 H21          1.5040    -3.7870     1.0240 h1         1 YY9       0.055200
     62 H22         -0.1160    -1.8710    -2.0860 hc         1 YY9       0.067700
     63 H23          1.3340    -0.9340    -1.7380 hc         1 YY9       0.067700
     64 H24          0.9490    -3.9310    -1.2890 h1         1 YY9       0.055200
     65 H25          1.9830    -3.1760    -2.4920 h1         1 YY9       0.055200
     66 H26          4.7180    -2.4860     1.1250 ha         1 YY9       0.177000
     67 H28          6.5560    -3.1530    -1.2050 ha         1 YY9       0.197000
     68 C1           7.3870    -2.6560     0.7890 c3         1 YY9       0.184000
     69 N2           8.3250    -3.7670     0.8450 n3         1 YY9      -0.705600
     70 C7           9.1500    -3.8480    -0.3420 c3         1 YY9       0.147100
     71 C8           9.1520    -3.6780     2.0300 c3         1 YY9       0.147100
     72 H27          7.8970    -1.7110     0.5250 h1         1 YY9       0.040700
     73 H29          6.9610    -2.5090     1.7840 h1         1 YY9       0.040700
     74 H30          9.7810    -2.9560    -0.4850 h1         1 YY9       0.032200
     75 H31          9.8080    -4.7150    -0.2750 h1         1 YY9       0.032200
     76 H32          8.5430    -3.9710    -1.2380 h1         1 YY9       0.032200
     77 H33          8.5310    -3.6750     2.9270 h1         1 YY9       0.032200
     78 H34          9.8130    -4.5440     2.0860 h1         1 YY9       0.032200
     79 H35          9.7820    -2.7750     2.0540 h1         1 YY9       0.032200
@<TRIPOS>BOND
     1     1     2 1   
     2     1    41 1   
     3     1    42 1   
     4     1    43 1   
     5     2     3 1   
     6     3     4 ar  
     7     3     6 ar  
     8     4     5 1   
     9     4    12 ar  
    10     6     7 ar  
    11     6    44 1   
    12     7     8 1   
    13     7    10 ar  
    14     8     9 1   
    15     9    45 1   
    16     9    46 1   
    17     9    47 1   
    18    10    11 1   
    19    10    12 ar  
    20    12    13 1   
    21    13    14 1   
    22    13    16 1   
    23    14    15 2   
    24    14    30 1   
    25    16    17 1   
    26    16    48 1   
    27    16    49 1   
    28    17    18 ar  
    29    17    29 ar  
    30    18    19 ar  
    31    18    50 1   
    32    19    20 ar  
    33    20    21 1   
    34    20    28 ar  
    35    21    22 1   
    36    21    51 1   
    37    22    23 ar  
    38    22    27 ar  
    39    23    24 ar  
    40    23    52 1   
    41    24    25 ar  
    42    24    53 1   
    43    25    26 ar  
    44    25    54 1   
    45    26    27 ar  
    46    26    55 1   
    47    27    56 1   
    48    28    29 ar  
    49    29    30 1   
    50    30    31 1   
    51    31    32 1   
    52    31    34 1   
    53    31    57 1   
    54    32    33 1   
    55    32    58 1   
    56    32    59 1   
    57    33    36 1   
    58    33    60 1   
    59    33    61 1   
    60    34    35 1   
    61    34    62 1   
    62    34    63 1   
    63    35    36 1   
    64    35    64 1   
    65    35    65 1   
    66    36    37 1   
    67    37    38 2   
    68    37    39 1   
    69    39    40 2   
    70    39    66 1   
    71    40    67 1   
    72    40    68 1   
    73    68    69 1   
    74    68    72 1   
    75    68    73 1   
    76    69    70 1   
    77    69    71 1   
    78    70    74 1   
    79    70    75 1   
    80    70    76 1   
    81    71    77 1   
    82    71    78 1   
    83    71    79 1   
@<TRIPOS>SUBSTRUCTURE
     1 YY9         1 TEMP              0 ****  ****    0 ROOT
