@<TRIPOS>MOLECULE
YYA
   33    32     1     0     0
SMALL
No Charge or Current Charge


@<TRIPOS>ATOM
      1 C           59.0740    -3.6710    38.1810 c          1 YYA       0.739000
      2 N           57.2400    -3.7350    36.2420 n7         1 YYA      -0.840400
      3 O           59.6490    -4.6460    37.7050 o          1 YYA      -0.727000
      4 CA          57.6690    -3.2050    37.6090 c3         1 YYA       0.048500
      5 CB          56.5680    -3.3200    38.7270 c3         1 YYA       0.156300
      6 CH          54.6180    -4.9620    41.8600 ce         1 YYA      -0.166000
      7 CT          54.9960    -5.7230    42.9060 c2         1 YYA      -0.330000
      8 CZ          54.7330    -3.4970    41.8680 ce         1 YYA      -0.213000
      9 CD2         54.0640    -3.0300    39.4120 c3         1 YYA      -0.048200
     10 OG1         56.4290    -4.6740    39.1830 oh         1 YYA      -0.644000
     11 CG2         55.1620    -2.7390    38.3460 c3         1 YYA      -0.094700
     12 OXT         59.6050    -2.9550    39.0240 o          1 YYA      -0.727000
     13 H1          56.4140    -3.2060    35.9450 hn         1 YYA       0.359000
     14 HA          57.8180    -2.1270    37.4680 h1         1 YYA       0.034700
     15 HB          56.9330    -2.7170    39.5700 h1         1 YYA       0.050700
     16 HE          54.5940    -1.5910    40.9770 ha         1 YYA       0.166000
     17 HH          54.1920    -5.4440    40.9780 ha         1 YYA       0.172000
     18 HN          56.7020    -5.4280    35.0790 h1         1 YYA       0.016700
     19 HNA         57.7270    -5.8110    36.4740 h1         1 YYA       0.016700
     20 H8          56.0060    -5.4160    36.7060 h1         1 YYA       0.016700
     21 HT          54.8940    -6.8090    42.8860 ha         1 YYA       0.155000
     22 HTA         55.4180    -5.2890    43.8140 ha         1 YYA       0.155000
     23 HZ          55.0460    -3.0560    42.8180 ha         1 YYA       0.164000
     24 HD1         54.2290    -0.8300    37.7920 hc         1 YYA       0.026367
     25 HD1A        55.6270    -0.6570    38.8750 hc         1 YYA       0.026367
     26 HD1B        55.8630    -1.0280    37.1540 hc         1 YYA       0.026367
     27 HD2         53.7750    -4.0840    39.3390 hc         1 YYA       0.039200
     28 HD2A        53.1540    -2.4770    39.1510 hc         1 YYA       0.039200
     29 HOG1        55.8710    -4.6220    39.9900 ho         1 YYA       0.420000
     30 HG2         54.8270    -3.2370    37.4280 hc         1 YYA       0.047700
     31 CD1         55.2270    -1.2220    38.0250 c3         1 YYA      -0.081100
     32 CN          56.9060    -5.1720    36.1270 c3         1 YYA       0.173100
     33 CE          54.4820    -2.6670    40.8290 c2         1 YYA      -0.176200
@<TRIPOS>BOND
     1     1     3 1   
     2     1     4 1   
     3     1    12 1   
     4     2     4 1   
     5     2    13 1   
     6     2    32 1   
     7     4     5 1   
     8     4    14 1   
     9     5    10 1   
    10     5    11 1   
    11     5    15 1   
    12     6     7 2   
    13     6     8 1   
    14     6    17 1   
    15     7    21 1   
    16     7    22 1   
    17     8    23 1   
    18     8    33 2   
    19     9    11 1   
    20     9    27 1   
    21     9    28 1   
    22     9    33 1   
    23    10    29 1   
    24    11    30 1   
    25    11    31 1   
    26    16    33 1   
    27    18    32 1   
    28    19    32 1   
    29    20    32 1   
    30    24    31 1   
    31    25    31 1   
    32    26    31 1   
@<TRIPOS>SUBSTRUCTURE
     1 YYA         1 TEMP              0 ****  ****    0 ROOT
