@<TRIPOS>MOLECULE
YYA
   33    32     1     0     0
SMALL
abcg2


@<TRIPOS>ATOM
      1 C           59.0640    -3.6700    37.9830 c          1 YYA       0.739000
      2 N           57.2750    -3.5710    36.2060 n7         1 YYA      -0.840400
      3 O           59.7000    -4.4110    37.2110 o          1 YYA      -0.727000
      4 CA          57.6660    -3.1500    37.5390 c3         1 YYA       0.048500
      5 CB          56.6460    -3.3650    38.6730 c3         1 YYA       0.156300
      6 CH          54.4770    -4.9000    42.0700 ce         1 YYA      -0.166000
      7 CT          54.6040    -5.5460    43.2320 c2         1 YYA      -0.330000
      8 CZ          54.7160    -3.4730    41.9190 ce         1 YYA      -0.213000
      9 CD2         54.2210    -3.2480    39.4320 c3         1 YYA      -0.048200
     10 OG1         56.6470    -4.7370    39.0320 oh         1 YYA      -0.644000
     11 CG2         55.2310    -2.8760    38.3290 c3         1 YYA      -0.094700
     12 OXT         59.4510    -3.2500    39.0940 o          1 YYA      -0.727000
     13 H1          56.5480    -2.9570    35.8620 hn         1 YYA       0.359000
     14 HA          57.7920    -2.0620    37.4670 h1         1 YYA       0.034700
     15 HB          57.0000    -2.7640    39.5210 h1         1 YYA       0.050700
     16 HE          54.8110    -1.6940    40.8690 ha         1 YYA       0.166000
     17 HH          54.1740    -5.4640    41.1940 ha         1 YYA       0.172000
     18 HN          56.7130    -5.1250    34.9460 h1         1 YYA       0.016700
     19 HNA         57.6400    -5.6190    36.3540 h1         1 YYA       0.016700
     20 H8          55.9270    -5.2330    36.5170 h1         1 YYA       0.016700
     21 HT          54.4170    -6.6090    43.3120 ha         1 YYA       0.155000
     22 HTA         54.8970    -5.0320    44.1390 ha         1 YYA       0.155000
     23 HZ          55.0080    -2.9500    42.8250 ha         1 YYA       0.164000
     24 HD1         54.1930    -1.0160    37.9170 hc         1 YYA       0.026367
     25 HD1A        55.6570    -0.8020    38.8720 hc         1 YYA       0.026367
     26 HD1B        55.7640    -1.1180    37.1470 hc         1 YYA       0.026367
     27 HD2         54.0610    -4.3270    39.4320 hc         1 YYA       0.039200
     28 HD2A        53.2560    -2.8060    39.1610 hc         1 YYA       0.039200
     29 HOG1        56.3920    -4.8070    39.9560 ho         1 YYA       0.420000
     30 HG2         54.8870    -3.3880    37.4230 hc         1 YYA       0.047700
     31 CD1         55.2150    -1.3740    38.0530 c3         1 YYA      -0.081100
     32 CN          56.8570    -4.9460    36.0130 c3         1 YYA       0.173100
     33 CE          54.6050    -2.7570    40.7910 c2         1 YYA      -0.176200
@<TRIPOS>BOND
     1     1     3 1   
     2     1     4 1   
     3     1    12 1   
     4     2     4 1   
     5     2    13 1   
     6     2    32 1   
     7     4     5 1   
     8     4    14 1   
     9     5    10 1   
    10     5    11 1   
    11     5    15 1   
    12     6     7 2   
    13     6     8 1   
    14     6    17 1   
    15     7    21 1   
    16     7    22 1   
    17     8    23 1   
    18     8    33 2   
    19     9    11 1   
    20     9    27 1   
    21     9    28 1   
    22     9    33 1   
    23    10    29 1   
    24    11    30 1   
    25    11    31 1   
    26    16    33 1   
    27    18    32 1   
    28    19    32 1   
    29    20    32 1   
    30    24    31 1   
    31    25    31 1   
    32    26    31 1   
@<TRIPOS>SUBSTRUCTURE
     1 YYA         1 TEMP              0 ****  ****    0 ROOT
