@<TRIPOS>MOLECULE
YYB
   32    32     1     0     0
SMALL
No Charge or Current Charge


@<TRIPOS>ATOM
      1 C1          24.7150    -3.4440    65.6800 c6         1 YYB       0.126600
      2 C2          25.8050    -3.3480    64.5760 c6         1 YYB       0.191300
      3 C3          26.3870    -1.8920    64.5640 c6         1 YYB       0.166300
      4 C4          25.2290    -0.8260    64.4610 c6         1 YYB       0.130300
      5 C5          24.1560    -1.0960    65.5660 c6         1 YYB       0.122300
      6 C6          22.9160    -0.1410    65.5090 c3         1 YYB       0.222600
      7 O1S2        27.1050    -5.2660    62.6140 o          1 YYB      -0.716200
      8 O1S6        21.7660     1.1340    62.1360 o          1 YYB      -0.713867
      9 O2          26.8560    -4.3040    64.8640 os         1 YYB      -0.599700
     10 O2S2        25.5840    -6.3120    64.2500 o          1 YYB      -0.716200
     11 O2S6        23.7140     1.8300    63.4910 o          1 YYB      -0.713867
     12 O3          27.3660    -1.7780    63.4870 os         1 YYB      -0.432000
     13 O3S2        28.0290    -6.4390    64.5830 o          1 YYB      -0.716200
     14 O3S6        21.4260     2.1770    64.3510 o          1 YYB      -0.713867
     15 O4          25.7050     0.5380    64.5500 oh         1 YYB      -0.772000
     16 O5          23.6810    -2.4580    65.4770 os         1 YYB      -0.439000
     17 O6          22.3640    -0.0840    64.1770 os         1 YYB      -0.585700
     18 S2          26.8980    -5.7020    64.0020 s6         1 YYB       1.505300
     19 S6          22.3090     1.3960    63.4750 s6         1 YYB       1.502300
     20 H11         24.2520    -4.4400    65.6620 h1         1 YYB       0.053200
     21 H12         25.1650    -3.2990    66.6730 h1         1 YYB       0.053200
     22 H2          25.3510    -3.5540    63.5950 h1         1 YYB       0.072700
     23 H3          26.9120    -1.7390    65.5180 h1         1 YYB       0.040700
     24 H3M1        29.1010    -0.8450    62.8000 h1         1 YYB       0.015033
     25 H3M2        28.6930    -0.4990    64.4940 h1         1 YYB       0.015033
     26 H3M3        27.7720     0.2610    63.1640 h1         1 YYB       0.015033
     27 H4          24.7440    -0.9790    63.4850 h1         1 YYB       0.070700
     28 H4O         24.9890     1.1050    64.1210 ho         1 YYB       0.566000
     29 H5          24.6210    -0.9680    66.5550 h1         1 YYB       0.017700
     30 H61         23.2310     0.8480    65.8720 h1         1 YYB       0.032200
     31 H62         22.1600    -0.5100    66.2140 h1         1 YYB       0.032200
     32 C3M         28.2700    -0.6580    63.4930 c3         1 YYB       0.167900
@<TRIPOS>BOND
     1     1     2 1   
     2     1    16 1   
     3     1    20 1   
     4     1    21 1   
     5     2     3 1   
     6     2     9 1   
     7     2    22 1   
     8     3     4 1   
     9     3    12 1   
    10     3    23 1   
    11     4     5 1   
    12     4    15 1   
    13     4    27 1   
    14     5     6 1   
    15     5    16 1   
    16     5    29 1   
    17     6    17 1   
    18     6    30 1   
    19     6    31 1   
    20     7    18 1   
    21     8    19 1   
    22     9    18 1   
    23    10    18 1   
    24    11    19 1   
    25    12    32 1   
    26    13    18 1   
    27    14    19 1   
    28    15    28 1   
    29    17    19 1   
    30    24    32 1   
    31    25    32 1   
    32    26    32 1   
@<TRIPOS>SUBSTRUCTURE
     1 YYB         1 TEMP              0 ****  ****    0 ROOT
