@<TRIPOS>MOLECULE
YYB
   32    32     1     0     0
SMALL
bcc


@<TRIPOS>ATOM
      1 C1          24.6960    -3.3650    65.5770 c6         1 YYB       0.103400
      2 C2          25.7800    -3.2180    64.5120 c6         1 YYB       0.168100
      3 C3          26.3040    -1.7880    64.4730 c6         1 YYB       0.143100
      4 C4          25.1460    -0.7970    64.4000 c6         1 YYB       0.107100
      5 C5          24.1320    -1.1000    65.5120 c6         1 YYB       0.099100
      6 C6          22.9430    -0.1590    65.5240 c3         1 YYB       0.199400
      7 O1S2        27.1770    -5.2290    62.6590 o          1 YYB      -0.716200
      8 O1S6        21.6170     0.9960    62.2310 o          1 YYB      -0.713867
      9 O2          26.8750    -4.0650    64.8320 os         1 YYB      -0.576500
     10 O2S2        25.7500    -6.2380    64.3790 o          1 YYB      -0.716200
     11 O2S6        23.5620     1.8990    63.4370 o          1 YYB      -0.713867
     12 O3          27.1510    -1.6560    63.3580 os         1 YYB      -0.385600
     13 O3S2        28.1770    -6.0680    64.7480 o          1 YYB      -0.716200
     14 O3S6        21.3220     2.1720    64.3840 o          1 YYB      -0.713867
     15 O4          25.6590     0.5030    64.5160 oh         1 YYB      -0.649800
     16 O5          23.6660    -2.4260    65.3900 os         1 YYB      -0.392600
     17 O6          22.3190    -0.0970    64.2440 os         1 YYB      -0.562500
     18 S2          26.9970    -5.5280    64.0810 s6         1 YYB       1.505300
     19 S6          22.1850     1.3680    63.5190 s6         1 YYB       1.502300
     20 H11         24.2480    -4.3570    65.5210 h1         1 YYB       0.053200
     21 H12         25.1510    -3.2560    66.5720 h1         1 YYB       0.053200
     22 H2          25.3600    -3.4610    63.5280 h1         1 YYB       0.072700
     23 H3          26.8570    -1.6030    65.4090 h1         1 YYB       0.040700
     24 H3M1        28.9380    -1.0170    62.6660 h1         1 YYB       0.015033
     25 H3M2        28.9460    -1.4260    64.3870 h1         1 YYB       0.015033
     26 H3M3        28.2000     0.0860    63.8360 h1         1 YYB       0.015033
     27 H4          24.6450    -0.9450    63.4320 h1         1 YYB       0.070700
     28 H4O         24.9960     1.1090    64.1370 ho         1 YYB       0.467000
     29 H5          24.6340    -0.9680    66.4870 h1         1 YYB       0.017700
     30 H61         23.2770     0.8220    65.8700 h1         1 YYB       0.032200
     31 H62         22.2070    -0.5140    66.2500 h1         1 YYB       0.032200
     32 C3M         28.3550    -0.9670    63.5860 c3         1 YYB       0.144700
@<TRIPOS>BOND
     1     1     2 1   
     2     1    16 1   
     3     1    20 1   
     4     1    21 1   
     5     2     3 1   
     6     2     9 1   
     7     2    22 1   
     8     3     4 1   
     9     3    12 1   
    10     3    23 1   
    11     4     5 1   
    12     4    15 1   
    13     4    27 1   
    14     5     6 1   
    15     5    16 1   
    16     5    29 1   
    17     6    17 1   
    18     6    30 1   
    19     6    31 1   
    20     7    18 1   
    21     8    19 1   
    22     9    18 1   
    23    10    18 1   
    24    11    19 1   
    25    12    32 1   
    26    13    18 1   
    27    14    19 1   
    28    15    28 1   
    29    17    19 1   
    30    24    32 1   
    31    25    32 1   
    32    26    32 1   
@<TRIPOS>SUBSTRUCTURE
     1 YYB         1 TEMP              0 ****  ****    0 ROOT
