@<TRIPOS>MOLECULE
YYC
   51    53     1     0     0
SMALL
No Charge or Current Charge


@<TRIPOS>ATOM
      1 C4          25.2470    -0.8850    23.8450 ca         1 YYC      -0.010000
      2 C7          25.2180    -3.6650    24.2500 ca         1 YYC      -0.131500
      3 C6          25.4060    -3.1490    22.9560 ca         1 YYC      -0.010000
      4 C13         27.7690     2.4310    21.4410 ca         1 YYC      -0.111300
      5 C16         28.4090    -0.3410    21.4930 ca         1 YYC       0.121700
      6 C26         33.2260     3.3860    18.0710 ca         1 YYC      -0.063500
      7 C2          25.0430    -2.8000    25.3450 ca         1 YYC      -0.024300
      8 C3          25.0590    -1.4090    25.1360 ca         1 YYC      -0.131500
      9 C5          25.4250    -1.7540    22.7510 ca         1 YYC      -0.265500
     10 S8          25.6720    -1.0640    21.1010 sy         1 YYC       1.009000
     11 O9          24.4740    -0.2720    20.7870 o          1 YYC      -0.530000
     12 O10         26.0910    -2.1550    20.2100 o          1 YYC      -0.530000
     13 C11         27.0610     0.0910    21.3150 ca         1 YYC      -0.263500
     14 C12         26.7600     1.4710    21.2960 ca         1 YYC       0.005000
     15 C14         29.0990     2.0160    21.5750 ca         1 YYC       0.027000
     16 C15         29.4310     0.6470    21.5780 ca         1 YYC      -0.273500
     17 S18         31.1870     0.2310    21.6910 sy         1 YYC       1.179600
     18 O19         31.5140    -0.9040    20.8250 o          1 YYC      -0.542500
     19 O20         31.6000     0.2670    23.0950 o          1 YYC      -0.542500
     20 N21         32.0510     1.5140    21.0320 nu         1 YYC      -0.947100
     21 C22         32.0970     1.9940    19.7280 ca         1 YYC       0.251000
     22 C23         31.1320     1.6540    18.7620 ca         1 YYC      -0.166000
     23 C24         31.2140     2.1740    17.4580 ca         1 YYC      -0.063500
     24 C25         32.2630     3.0480    17.0930 ca         1 YYC      -0.139600
     25 C27         33.1390     2.8630    19.3740 ca         1 YYC      -0.166000
     26 C28         32.3530     3.6120    15.6850 c          1 YYC       0.715600
     27 O29         33.2770     4.3660    15.4140 o          1 YYC      -0.716500
     28 O30         31.4990     3.2900    14.8700 o          1 YYC      -0.716500
     29 H36         25.2560     0.1940    23.7020 ha         1 YYC       0.134000
     30 H38         25.2090    -4.7430    24.3990 ha         1 YYC       0.115000
     31 H37         25.5370    -3.8370    22.1220 ha         1 YYC       0.134000
     32 H47         34.0470     4.0580    17.8270 ha         1 YYC       0.132500
     33 H33         25.8070    -3.4950    27.2510 hc         1 YYC       0.046700
     34 H32         24.2290    -2.6970    27.3600 hc         1 YYC       0.046700
     35 H34         24.3430    -4.3380    26.7150 hc         1 YYC       0.046700
     36 H35         24.9270    -0.7300    25.9750 ha         1 YYC       0.115000
     37 H39         25.7350     1.8150    21.1720 ha         1 YYC       0.142000
     38 H40         29.8760     2.7730    21.6670 ha         1 YYC       0.145000
     39 H41         29.6060    -2.0090    22.2850 hc         1 YYC       0.072700
     40 H43         27.9550    -2.4300    22.0430 hc         1 YYC       0.072700
     41 H42         29.0080    -2.2570    20.6330 hc         1 YYC       0.072700
     42 H44         32.8690     1.6370    21.6110 hn         1 YYC       0.503000
     43 H45         30.3120     0.9870    19.0050 ha         1 YYC       0.092500
     44 H46         30.4540     1.8940    16.7310 ha         1 YYC       0.132500
     45 H48         33.8890     3.1410    20.1090 ha         1 YYC       0.092500
     46 H51         27.4600     4.3110    20.4030 hc         1 YYC       0.048033
     47 H50         26.4220     4.1000    21.8240 hc         1 YYC       0.048033
     48 H52         28.1320     4.4960    22.0310 hc         1 YYC       0.048033
     49 C1          24.8440    -3.3630    26.7440 c3         1 YYC      -0.055800
     50 C17         28.7610    -1.8320    21.6130 c3         1 YYC      -0.100800
     51 C31         27.4270     3.9150    21.4250 c3         1 YYC      -0.047800
@<TRIPOS>BOND
     1     1     8 ar  
     2     1     9 ar  
     3     1    29 1   
     4     2     3 ar  
     5     2     7 ar  
     6     2    30 1   
     7     3     9 ar  
     8     3    31 1   
     9     4    14 ar  
    10     4    15 ar  
    11     4    51 1   
    12     5    13 ar  
    13     5    16 ar  
    14     5    50 1   
    15     6    24 ar  
    16     6    25 ar  
    17     6    32 1   
    18     7     8 ar  
    19     7    49 1   
    20     8    36 1   
    21     9    10 1   
    22    10    11 2   
    23    10    12 2   
    24    10    13 1   
    25    13    14 ar  
    26    14    37 1   
    27    15    16 ar  
    28    15    38 1   
    29    16    17 1   
    30    17    18 2   
    31    17    19 2   
    32    17    20 1   
    33    20    21 1   
    34    20    42 1   
    35    21    22 ar  
    36    21    25 ar  
    37    22    23 ar  
    38    22    43 1   
    39    23    24 ar  
    40    23    44 1   
    41    24    26 1   
    42    25    45 1   
    43    26    27 1   
    44    26    28 1   
    45    33    49 1   
    46    34    49 1   
    47    35    49 1   
    48    39    50 1   
    49    40    50 1   
    50    41    50 1   
    51    46    51 1   
    52    47    51 1   
    53    48    51 1   
@<TRIPOS>SUBSTRUCTURE
     1 YYC         1 TEMP              0 ****  ****    0 ROOT
