@<TRIPOS>MOLECULE
YYC
   51    53     1     0     0
SMALL
abcg2


@<TRIPOS>ATOM
      1 C4          25.3630    -0.8910    24.1310 ca         1 YYC      -0.010000
      2 C7          25.5150    -3.6400    24.4790 ca         1 YYC      -0.131500
      3 C6          25.4930    -3.1160    23.1960 ca         1 YYC      -0.010000
      4 C13         27.3900     2.3520    20.9830 ca         1 YYC      -0.111300
      5 C16         28.0230    -0.4160    21.3140 ca         1 YYC       0.121700
      6 C26         33.6480     3.2060    18.4750 ca         1 YYC      -0.063500
      7 C2          25.4710    -2.8120    25.5980 ca         1 YYC      -0.024300
      8 C3          25.3960    -1.4310    25.4030 ca         1 YYC      -0.131500
      9 C5          25.4220    -1.7420    23.0340 ca         1 YYC      -0.265500
     10 S8          25.2950    -1.0440    21.4130 sy         1 YYC       1.009000
     11 O9          24.0990    -0.2070    21.3870 o          1 YYC      -0.530000
     12 O10         25.4090    -2.1070    20.4200 o          1 YYC      -0.530000
     13 C11         26.7060     0.0560    21.2790 ca         1 YYC      -0.263500
     14 C12         26.3920     1.3990    21.1130 ca         1 YYC       0.005000
     15 C14         28.7060     1.9140    21.0220 ca         1 YYC       0.027000
     16 C15         29.0090     0.5700    21.1720 ca         1 YYC      -0.273500
     17 S18         30.7340     0.0870    21.1740 sy         1 YYC       1.179600
     18 O19         30.9620    -0.7430    20.0040 o          1 YYC      -0.542500
     19 O20         31.0570    -0.4070    22.5000 o          1 YYC      -0.542500
     20 N21         31.5700     1.4880    20.9790 nu         1 YYC      -0.947100
     21 C22         31.9810     2.0200    19.7420 ca         1 YYC       0.251000
     22 C23         31.1560     2.0060    18.6210 ca         1 YYC      -0.166000
     23 C24         31.5930     2.5840    17.4410 ca         1 YYC      -0.063500
     24 C25         32.8390     3.1970    17.3430 ca         1 YYC      -0.139600
     25 C27         33.2330     2.6220    19.6610 ca         1 YYC      -0.166000
     26 C28         33.2940     3.8430    16.0390 c          1 YYC       0.715600
     27 O29         34.4480     4.3110    16.0260 o          1 YYC      -0.716500
     28 O30         32.4670     3.8460    15.1070 o          1 YYC      -0.716500
     29 H36         25.2970     0.1830    24.0030 ha         1 YYC       0.134000
     30 H38         25.5650    -4.7140    24.6100 ha         1 YYC       0.115000
     31 H37         25.5310    -3.7770    22.3410 ha         1 YYC       0.134000
     32 H47         34.6230     3.6730    18.4290 ha         1 YYC       0.132500
     33 H33         26.5570    -3.4360    27.3330 hc         1 YYC       0.046700
     34 H32         24.9700    -2.7730    27.6900 hc         1 YYC       0.046700
     35 H34         25.1210    -4.3970    27.0100 hc         1 YYC       0.046700
     36 H35         25.3530    -0.7710    26.2600 ha         1 YYC       0.115000
     37 H39         25.3580     1.7140    21.0960 ha         1 YYC       0.142000
     38 H40         29.5000     2.6440    20.9390 ha         1 YYC       0.145000
     39 H41         28.4830    -2.0150    22.6550 hc         1 YYC       0.072700
     40 H43         27.5910    -2.5310    21.2310 hc         1 YYC       0.072700
     41 H42         29.2820    -2.1640    21.0960 hc         1 YYC       0.072700
     42 H44         32.0410     1.8120    21.8150 hn         1 YYC       0.503000
     43 H45         30.1710     1.5600    18.6510 ha         1 YYC       0.092500
     44 H46         30.9420     2.5680    16.5770 ha         1 YYC       0.132500
     45 H48         33.8810     2.6320    20.5300 ha         1 YYC       0.092500
     46 H51         27.0270     4.0410    19.7170 hc         1 YYC       0.048033
     47 H50         26.0930     4.0510    21.2060 hc         1 YYC       0.048033
     48 H52         27.8150     4.4440    21.2350 hc         1 YYC       0.048033
     49 C1          25.5250    -3.3860    26.9810 c3         1 YYC      -0.055800
     50 C17         28.3620    -1.8550    21.5820 c3         1 YYC      -0.100800
     51 C31         27.0630     3.8000    20.7810 c3         1 YYC      -0.047800
@<TRIPOS>BOND
     1     1     8 ar  
     2     1     9 ar  
     3     1    29 1   
     4     2     3 ar  
     5     2     7 ar  
     6     2    30 1   
     7     3     9 ar  
     8     3    31 1   
     9     4    14 ar  
    10     4    15 ar  
    11     4    51 1   
    12     5    13 ar  
    13     5    16 ar  
    14     5    50 1   
    15     6    24 ar  
    16     6    25 ar  
    17     6    32 1   
    18     7     8 ar  
    19     7    49 1   
    20     8    36 1   
    21     9    10 1   
    22    10    11 2   
    23    10    12 2   
    24    10    13 1   
    25    13    14 ar  
    26    14    37 1   
    27    15    16 ar  
    28    15    38 1   
    29    16    17 1   
    30    17    18 2   
    31    17    19 2   
    32    17    20 1   
    33    20    21 1   
    34    20    42 1   
    35    21    22 ar  
    36    21    25 ar  
    37    22    23 ar  
    38    22    43 1   
    39    23    24 ar  
    40    23    44 1   
    41    24    26 1   
    42    25    45 1   
    43    26    27 1   
    44    26    28 1   
    45    33    49 1   
    46    34    49 1   
    47    35    49 1   
    48    39    50 1   
    49    40    50 1   
    50    41    50 1   
    51    46    51 1   
    52    47    51 1   
    53    48    51 1   
@<TRIPOS>SUBSTRUCTURE
     1 YYC         1 TEMP              0 ****  ****    0 ROOT
