@<TRIPOS>MOLECULE
YYD
   25    25     1     0     0
SMALL
No Charge or Current Charge


@<TRIPOS>ATOM
      1 C1          25.9420     6.4350     5.2110 c6         1 YYD       0.391300
      2 C2          26.2130     4.9450     4.7780 c6         1 YYD       0.162300
      3 C3          26.2990     4.8550     3.2290 c6         1 YYD       0.135300
      4 C4          24.9980     5.4220     2.5900 c6         1 YYD       0.109300
      5 C5          24.7880     6.8920     3.0880 c6         1 YYD       0.141300
      6 C6          23.4440     7.5160     2.5820 c3         1 YYD       0.157800
      7 N6          23.1820     8.8900     3.0780 n8         1 YYD      -0.993200
      8 O1          27.0050     7.3260     4.8700 oh         1 YYD      -0.717000
      9 O2          27.4000     4.3690     5.3700 oh         1 YYD      -0.699000
     10 O3          26.5100     3.4930     2.8030 oh         1 YYD      -0.731000
     11 O4          25.0910     5.3310     1.1510 oh         1 YYD      -0.720000
     12 O5          24.7600     6.9300     4.5480 os         1 YYD      -0.491000
     13 H1          25.7770     6.4560     6.3000 h2         1 YYD       0.073700
     14 HO1         26.6570     8.2170     5.0940 ho         1 YYD       0.516000
     15 H2          25.3390     4.3570     5.0960 h1         1 YYD       0.046700
     16 HO2         27.6400     3.6370     4.7510 ho         1 YYD       0.521000
     17 H3          27.1390     5.4840     2.8940 h1         1 YYD       0.074700
     18 HO3         26.2370     3.4910     1.8520 ho         1 YYD       0.523000
     19 H4          24.1490     4.8180     2.9470 h1         1 YYD       0.047700
     20 HO4         24.1760     5.3910     0.7870 ho         1 YYD       0.509000
     21 H5          25.6120     7.5210     2.7200 h1         1 YYD       0.080700
     22 H61         23.4420     7.5400     1.4840 h1         1 YYD       0.031700
     23 H62         22.6190     6.8690     2.9110 h1         1 YYD       0.031700
     24 H6N1        22.2040     9.1370     2.8820 hn         1 YYD       0.400000
     25 H6N2        23.2260     8.8640     4.1040 hn         1 YYD       0.400000
@<TRIPOS>BOND
     1     1     2 1   
     2     1     8 1   
     3     1    12 1   
     4     1    13 1   
     5     2     3 1   
     6     2     9 1   
     7     2    15 1   
     8     3     4 1   
     9     3    10 1   
    10     3    17 1   
    11     4     5 1   
    12     4    11 1   
    13     4    19 1   
    14     5     6 1   
    15     5    12 1   
    16     5    21 1   
    17     6     7 1   
    18     6    22 1   
    19     6    23 1   
    20     7    24 1   
    21     7    25 1   
    22     8    14 1   
    23     9    16 1   
    24    10    18 1   
    25    11    20 1   
@<TRIPOS>SUBSTRUCTURE
     1 YYD         1 TEMP              0 ****  ****    0 ROOT
