@<TRIPOS>MOLECULE
YYD
   25    25     1     0     0
SMALL
abcg2


@<TRIPOS>ATOM
      1 C1          25.9210     6.4280     5.1190 c6         1 YYD       0.391300
      2 C2          26.2090     4.9950     4.6800 c6         1 YYD       0.162300
      3 C3          26.2430     4.8970     3.1600 c6         1 YYD       0.135300
      4 C4          24.9520     5.4600     2.5790 c6         1 YYD       0.109300
      5 C5          24.7260     6.8820     3.1000 c6         1 YYD       0.141300
      6 C6          23.3900     7.4620     2.6720 c3         1 YYD       0.157800
      7 N6          23.2490     8.8360     3.1220 n8         1 YYD      -0.993200
      8 O1          27.0170     7.2220     4.8040 oh         1 YYD      -0.717000
      9 O2          27.4090     4.5750     5.2740 oh         1 YYD      -0.699000
     10 O3          26.4190     3.5370     2.8360 oh         1 YYD      -0.731000
     11 O4          25.0750     5.4290     1.1730 oh         1 YYD      -0.720000
     12 O5          24.7340     6.8750     4.5220 os         1 YYD      -0.491000
     13 H1          25.7150     6.4470     6.1960 h2         1 YYD       0.073700
     14 HO1         26.9310     8.0680     5.2570 ho         1 YYD       0.516000
     15 H2          25.3620     4.3880     5.0350 h1         1 YYD       0.046700
     16 HO2         27.5380     3.6470     5.0540 ho         1 YYD       0.521000
     17 H3          27.0840     5.4970     2.7800 h1         1 YYD       0.074700
     18 HO3         26.5620     3.4710     1.8860 ho         1 YYD       0.523000
     19 H4          24.1170     4.8260     2.9150 h1         1 YYD       0.047700
     20 HO4         24.1990     5.3770     0.7820 ho         1 YYD       0.509000
     21 H5          25.5240     7.5310     2.7150 h1         1 YYD       0.080700
     22 H61         23.3550     7.4610     1.5800 h1         1 YYD       0.031700
     23 H62         22.5870     6.7920     3.0130 h1         1 YYD       0.031700
     24 H6N1        22.3990     9.2280     2.7380 hn         1 YYD       0.400000
     25 H6N2        23.1310     8.8530     4.1270 hn         1 YYD       0.400000
@<TRIPOS>BOND
     1     1     2 1   
     2     1     8 1   
     3     1    12 1   
     4     1    13 1   
     5     2     3 1   
     6     2     9 1   
     7     2    15 1   
     8     3     4 1   
     9     3    10 1   
    10     3    17 1   
    11     4     5 1   
    12     4    11 1   
    13     4    19 1   
    14     5     6 1   
    15     5    12 1   
    16     5    21 1   
    17     6     7 1   
    18     6    22 1   
    19     6    23 1   
    20     7    24 1   
    21     7    25 1   
    22     8    14 1   
    23     9    16 1   
    24    10    18 1   
    25    11    20 1   
@<TRIPOS>SUBSTRUCTURE
     1 YYD         1 TEMP              0 ****  ****    0 ROOT
