@<TRIPOS>MOLECULE
YYG
   67    70     1     0     0
SMALL
abcg2


@<TRIPOS>ATOM
      1 P            2.5830     1.1400    -6.2420 p5         1 YYG       1.270900
      2 OP1          2.6860     1.0340    -4.7170 o          1 YYG      -0.911833
      3 OP2          3.4480     0.1530    -7.0100 o          1 YYG      -0.911833
      4 OP3          2.6010     2.5740    -6.7570 o          1 YYG      -0.911833
      5 O5           1.0250     0.5580    -6.6160 os         1 YYG      -0.560400
      6 C5          -0.0610     1.2840    -6.1360 c3         1 YYG       0.246600
      7 C4          -1.1820     0.3330    -5.7580 c5         1 YYG       0.142300
      8 O4          -0.7420    -0.5980    -4.7520 os         1 YYG      -0.402000
      9 C3          -2.3800     1.0520    -5.1570 c5         1 YYG       0.098300
     10 O3          -3.5420     0.2980    -5.3960 oh         1 YYG      -0.721000
     11 C2          -2.0140     1.0310    -3.6730 c5         1 YYG       0.062300
     12 O2          -3.0870     1.1730    -2.7920 oh         1 YYG      -0.731000
     13 C1          -1.4050    -0.3660    -3.5520 c5         1 YYG       0.322300
     14 N9          -0.4530    -0.4730    -2.4560 na         1 YYG      -0.202500
     15 C8           0.8390     0.0190    -2.5240 cc         1 YYG       0.469400
     16 N7           1.4400    -0.0190    -1.3790 nd         1 YYG      -0.609000
     17 C7           0.5280    -0.5400    -0.5020 cd         1 YYG       0.091500
     18 C6           0.7160    -0.7590     0.8950 c          1 YYG       0.484300
     19 O6           1.7240    -0.5450     1.5390 o          1 YYG      -0.508000
     20 N1          -0.4530    -1.2700     1.4850 n          1 YYG      -0.163300
     21 C18         -1.6050    -1.5910     0.8070 cc         1 YYG       0.702400
     22 N2          -2.5140    -2.0950     1.5810 nd         1 YYG      -0.758000
     23 N3          -1.7310    -1.3860    -0.5440 na         1 YYG      -0.750100
     24 C17         -2.9460    -1.8430    -1.2030 c3         1 YYG       0.218100
     25 C9          -0.6550    -0.8340    -1.1590 cc         1 YYG       0.217000
     26 C11         -1.9550    -2.1120     2.8380 cd         1 YYG       0.263300
     27 C12         -0.6880    -1.6150     2.8240 cc         1 YYG      -0.193300
     28 C13          0.2400    -1.3730     3.9620 c3         1 YYG       0.016900
     29 C14          0.2690     0.0940     4.4020 c3         1 YYG      -0.087400
     30 C15          1.1320     0.3080     5.6480 c3         1 YYG       0.070700
     31 C16          1.3350     1.8010     5.8650 c          1 YYG       0.570100
     32 O17          2.1710     2.4370     5.2740 o          1 YYG      -0.461000
     33 O18          0.4730     2.3170     6.7190 os         1 YYG      -0.447100
     34 C19          0.5550     3.7210     6.9710 c3         1 YYG       0.152900
     35 N20          0.5420    -0.3590     6.7770 ns         1 YYG      -0.479900
     36 C21          1.1850    -0.3860     7.9630 c          1 YYG       0.632100
     37 O22          2.3170     0.0190     8.1320 o          1 YYG      -0.542000
     38 O23          0.4250    -0.9230     8.9150 os         1 YYG      -0.458100
     39 C24          0.9920    -1.0150    10.2190 c3         1 YYG       0.173900
     40 H5          -0.4610     1.9720    -6.8950 h1         1 YYG      -0.003300
     41 H5'          0.1990     1.9020    -5.2660 h1         1 YYG      -0.003300
     42 H4          -1.4790    -0.2440    -6.6390 h1         1 YYG       0.084700
     43 H3          -2.4770     2.0770    -5.5400 h1         1 YYG       0.056700
     44 HO3         -4.2200     0.5920    -4.7760 ho         1 YYG       0.492000
     45 H2          -1.2320     1.7790    -3.4870 h1         1 YYG       0.091700
     46 HO2         -3.2190     2.1070    -2.6030 ho         1 YYG       0.506000
     47 H1          -2.1870    -1.1100    -3.3930 h2         1 YYG       0.054700
     48 H8           1.2950     0.3670    -3.4530 h5         1 YYG       0.193100
     49 H31         -3.5670    -2.3310    -0.4610 h1         1 YYG       0.057367
     50 H32         -3.4980    -1.0060    -1.6220 h1         1 YYG       0.057367
     51 H33         -2.7110    -2.5680    -1.9810 h1         1 YYG       0.057367
     52 H101        -3.1410    -3.6070     3.7950 hc         1 YYG       0.032700
     53 H102        -2.1330    -2.6790     4.9000 hc         1 YYG       0.032700
     54 H103        -3.5860    -1.9600     4.2150 hc         1 YYG       0.032700
     55 H131         1.2530    -1.7060     3.7370 hc         1 YYG       0.057700
     56 H132        -0.1040    -1.9970     4.7890 hc         1 YYG       0.057700
     57 H141        -0.7490     0.4470     4.5950 hc         1 YYG       0.071200
     58 H142         0.6690     0.7060     3.5950 hc         1 YYG       0.071200
     59 H15          2.1240    -0.1080     5.4520 h1         1 YYG       0.111700
     60 H191        -0.2200     3.9400     7.6990 h1         1 YYG       0.044700
     61 H192         1.5260     3.9920     7.3840 h1         1 YYG       0.044700
     62 H193         0.3740     4.2970     6.0640 h1         1 YYG       0.044700
     63 HN20        -0.4470    -0.5570     6.7590 hn         1 YYG       0.330500
     64 H241         0.2230    -1.4570    10.8450 h1         1 YYG       0.043033
     65 H242         1.8740    -1.6540    10.2300 h1         1 YYG       0.043033
     66 H243         1.2540    -0.0340    10.6140 h1         1 YYG       0.043033
     67 C10         -2.7390    -2.6140     3.9980 c3         1 YYG      -0.104400
@<TRIPOS>BOND
     1     1     2 1   
     2     1     3 1   
     3     1     4 1   
     4     1     5 1   
     5     5     6 1   
     6     6     7 1   
     7     6    40 1   
     8     6    41 1   
     9     7     8 1   
    10     7     9 1   
    11     7    42 1   
    12     8    13 1   
    13     9    10 1   
    14     9    11 1   
    15     9    43 1   
    16    10    44 1   
    17    11    12 1   
    18    11    13 1   
    19    11    45 1   
    20    12    46 1   
    21    13    14 1   
    22    13    47 1   
    23    14    15 1   
    24    14    25 1   
    25    15    16 2   
    26    15    48 1   
    27    16    17 1   
    28    17    18 1   
    29    17    25 2   
    30    18    19 2   
    31    18    20 1   
    32    20    21 1   
    33    20    27 1   
    34    21    22 2   
    35    21    23 1   
    36    22    26 1   
    37    23    24 1   
    38    23    25 1   
    39    24    49 1   
    40    24    50 1   
    41    24    51 1   
    42    26    27 2   
    43    26    67 1   
    44    27    28 1   
    45    28    29 1   
    46    28    55 1   
    47    28    56 1   
    48    29    30 1   
    49    29    57 1   
    50    29    58 1   
    51    30    31 1   
    52    30    35 1   
    53    30    59 1   
    54    31    32 2   
    55    31    33 1   
    56    33    34 1   
    57    34    60 1   
    58    34    61 1   
    59    34    62 1   
    60    35    36 1   
    61    35    63 1   
    62    36    37 2   
    63    36    38 1   
    64    38    39 1   
    65    39    64 1   
    66    39    65 1   
    67    39    66 1   
    68    52    67 1   
    69    53    67 1   
    70    54    67 1   
@<TRIPOS>SUBSTRUCTURE
     1 YYG         1 TEMP              0 ****  ****    0 ROOT
