@<TRIPOS>MOLECULE
YYG
   67    70     1     0     0
SMALL
No Charge or Current Charge


@<TRIPOS>ATOM
      1 P            2.7030     0.0070    -6.2800 p5         1 YYG       1.270900
      2 OP1          2.7080     0.3730    -4.8390 o          1 YYG      -0.911833
      3 OP2          3.7210    -1.0500    -6.5280 o          1 YYG      -0.911833
      4 OP3          3.0230     1.2000    -7.1110 o          1 YYG      -0.911833
      5 O5           1.2590    -0.5610    -6.7020 os         1 YYG      -0.560400
      6 C5           0.0980     0.2640    -6.5310 c3         1 YYG       0.246600
      7 C4          -0.9960    -0.5240    -5.7490 c5         1 YYG       0.142300
      8 O4          -0.5400    -0.8360    -4.3990 os         1 YYG      -0.402000
      9 C3          -2.3200     0.2950    -5.5670 c5         1 YYG       0.098300
     10 O3          -3.4780    -0.5320    -5.3900 oh         1 YYG      -0.721000
     11 C2          -1.9950     1.0560    -4.2510 c5         1 YYG       0.062300
     12 O2          -3.1850     1.6070    -3.6480 oh         1 YYG      -0.731000
     13 C1          -1.3480    -0.1180    -3.4430 c5         1 YYG       0.322300
     14 N9          -0.5300     0.2360    -2.2810 na         1 YYG      -0.202500
     15 C8           0.6290     0.9920    -2.3520 cc         1 YYG       0.469400
     16 N7           1.2200     1.1190    -1.1580 nd         1 YYG      -0.609000
     17 C7           0.4130     0.4380    -0.2540 cd         1 YYG       0.091500
     18 C6           0.5970     0.2430     1.2100 c          1 YYG       0.484300
     19 O6           1.5430     0.6870     1.8530 o          1 YYG      -0.508000
     20 N1          -0.4310    -0.5210     1.7570 n          1 YYG      -0.163300
     21 C18         -1.4920    -0.9510     1.0430 cc         1 YYG       0.702400
     22 N2          -2.3830    -1.6470     1.7260 nd         1 YYG      -0.758000
     23 N3          -1.7620    -0.7110    -0.3060 na         1 YYG      -0.750100
     24 C17         -3.0730    -1.0370    -0.9400 c3         1 YYG       0.218100
     25 C9          -0.6650    -0.0730    -0.9410 cc         1 YYG       0.217000
     26 C11         -1.8440    -1.6730     3.0180 cd         1 YYG       0.263300
     27 C12         -0.6490    -0.9790     3.0350 cc         1 YYG      -0.193300
     28 C13          0.2650    -0.7550     4.2180 c3         1 YYG       0.016900
     29 C14          0.0420     0.6210     4.8840 c3         1 YYG      -0.087400
     30 C15          1.0270     0.9400     6.0390 c3         1 YYG       0.070700
     31 C16          0.8900     2.4050     6.5260 c          1 YYG       0.570100
     32 O17          1.8100     3.2120     6.5130 o          1 YYG      -0.461000
     33 O18         -0.3500     2.6570     7.0620 os         1 YYG      -0.447100
     34 C19         -0.6080     3.9720     7.5860 c3         1 YYG       0.152900
     35 N20          0.8560     0.0190     7.1820 ns         1 YYG      -0.479900
     36 C21          1.5850    -1.1160     7.3930 c          1 YYG       0.632100
     37 O22          2.4930    -1.5100     6.6790 o          1 YYG      -0.542000
     38 O23          1.1390    -1.7220     8.5270 os         1 YYG      -0.458100
     39 C24          1.7810    -2.9460     8.9280 c3         1 YYG       0.173900
     40 H5          -0.3050     0.5430    -7.5130 h1         1 YYG      -0.003300
     41 H5'          0.3340     1.1920    -5.9930 h1         1 YYG      -0.003300
     42 H4          -1.1880    -1.4610    -6.2890 h1         1 YYG       0.084700
     43 H3          -2.4770     0.9920    -6.4030 h1         1 YYG       0.056700
     44 HO3         -4.0260    -0.0410    -4.7310 ho         1 YYG       0.492000
     45 H2          -1.2500     1.8460    -4.4310 h1         1 YYG       0.091700
     46 HO2         -3.3100     2.5210    -4.0030 ho         1 YYG       0.506000
     47 H1          -2.1270    -0.8040    -3.1130 h2         1 YYG       0.054700
     48 H8           0.9970     1.3930    -3.2910 h5         1 YYG       0.193100
     49 H31         -3.8650    -1.1800    -0.1940 h1         1 YYG       0.057367
     50 H32         -3.3940    -0.2100    -1.5840 h1         1 YYG       0.057367
     51 H33         -2.9860    -1.9570    -1.5330 h1         1 YYG       0.057367
     52 H101        -3.5380    -2.7100     3.8730 hc         1 YYG       0.032700
     53 H102        -1.9630    -3.2440     4.4850 hc         1 YYG       0.032700
     54 H103        -2.6430    -1.6970     5.0170 hc         1 YYG       0.032700
     55 H131         1.3140    -0.8570     3.9160 hc         1 YYG       0.057700
     56 H132         0.0940    -1.5440     4.9600 hc         1 YYG       0.057700
     57 H141        -0.9890     0.6760     5.2560 hc         1 YYG       0.071200
     58 H142         0.1380     1.4010     4.1190 hc         1 YYG       0.071200
     59 H15          2.0530     0.8480     5.6580 h1         1 YYG       0.111700
     60 H191        -1.6320     4.0340     7.9760 h1         1 YYG       0.044700
     61 H192         0.0830     4.2090     8.4060 h1         1 YYG       0.044700
     62 H193        -0.4950     4.7340     6.8040 h1         1 YYG       0.044700
     63 HN20         0.1380     0.2190     7.8690 hn         1 YYG       0.330500
     64 H241         1.3280    -3.3290     9.8520 h1         1 YYG       0.043033
     65 H242         1.6750    -3.7150     8.1520 h1         1 YYG       0.043033
     66 H243         2.8500    -2.7830     9.1150 h1         1 YYG       0.043033
     67 C10         -2.5360    -2.3690     4.1580 c3         1 YYG      -0.104400
@<TRIPOS>BOND
     1     1     2 1   
     2     1     3 1   
     3     1     4 1   
     4     1     5 1   
     5     5     6 1   
     6     6     7 1   
     7     6    40 1   
     8     6    41 1   
     9     7     8 1   
    10     7     9 1   
    11     7    42 1   
    12     8    13 1   
    13     9    10 1   
    14     9    11 1   
    15     9    43 1   
    16    10    44 1   
    17    11    12 1   
    18    11    13 1   
    19    11    45 1   
    20    12    46 1   
    21    13    14 1   
    22    13    47 1   
    23    14    15 1   
    24    14    25 1   
    25    15    16 2   
    26    15    48 1   
    27    16    17 1   
    28    17    18 1   
    29    17    25 2   
    30    18    19 2   
    31    18    20 1   
    32    20    21 1   
    33    20    27 1   
    34    21    22 2   
    35    21    23 1   
    36    22    26 1   
    37    23    24 1   
    38    23    25 1   
    39    24    49 1   
    40    24    50 1   
    41    24    51 1   
    42    26    27 2   
    43    26    67 1   
    44    27    28 1   
    45    28    29 1   
    46    28    55 1   
    47    28    56 1   
    48    29    30 1   
    49    29    57 1   
    50    29    58 1   
    51    30    31 1   
    52    30    35 1   
    53    30    59 1   
    54    31    32 2   
    55    31    33 1   
    56    33    34 1   
    57    34    60 1   
    58    34    61 1   
    59    34    62 1   
    60    35    36 1   
    61    35    63 1   
    62    36    37 2   
    63    36    38 1   
    64    38    39 1   
    65    39    64 1   
    66    39    65 1   
    67    39    66 1   
    68    52    67 1   
    69    53    67 1   
    70    54    67 1   
@<TRIPOS>SUBSTRUCTURE
     1 YYG         1 TEMP              0 ****  ****    0 ROOT
