@<TRIPOS>MOLECULE
YYH
   27    27     1     0     0
SMALL
No Charge or Current Charge


@<TRIPOS>ATOM
      1 O6          15.9780    -8.1110   -58.5200 oh         1 YYH      -0.715000
      2 C1          12.5360   -10.7030   -58.6920 c6         1 YYH       0.397300
      3 C2          11.4600    -9.6120   -58.3240 c6         1 YYH       0.112300
      4 C3          11.5680    -8.4130   -59.3140 c6         1 YYH       0.134300
      5 C4          13.0290    -7.8730   -59.3980 c6         1 YYH       0.107300
      6 C5          14.0010    -9.0470   -59.7510 c6         1 YYH       0.156300
      7 C6          15.5120    -8.6100   -59.7870 c3         1 YYH       0.179300
      8 C6M         16.4620    -9.7400   -60.2370 c3         1 YYH      -0.121100
      9 O1          12.2660   -11.3210   -59.9570 oh         1 YYH      -0.750000
     10 O2          11.6110    -9.0980   -56.9840 oh         1 YYH      -0.707000
     11 O3          10.6850    -7.3490   -58.9060 oh         1 YYH      -0.731000
     12 O4          13.0880    -6.7910   -60.3600 oh         1 YYH      -0.732000
     13 O5          13.8520   -10.1140   -58.7700 os         1 YYH      -0.413000
     14 H1          12.5400   -11.4690   -57.8990 h2         1 YYH       0.086700
     15 HO1         11.4970   -11.9170   -59.8070 ho         1 YYH       0.521000
     16 H2          10.4610   -10.0610   -58.4320 h1         1 YYH       0.042700
     17 HO2         11.1770    -8.2090   -57.0320 ho         1 YYH       0.523000
     18 H3          11.2800    -8.7710   -60.3150 h1         1 YYH       0.056700
     19 HO3         10.9590    -6.5760   -59.4590 ho         1 YYH       0.526000
     20 H4          13.3110    -7.5010   -58.4010 h1         1 YYH       0.080700
     21 HO4         13.9070    -6.2750   -60.1680 ho         1 YYH       0.514000
     22 H5          13.7460    -9.4340   -60.7480 h1         1 YYH       0.063700
     23 H61         15.5960    -7.8140   -60.5390 h1         1 YYH       0.029700
     24 H6M1        16.1480   -10.1360   -61.2100 hc         1 YYH       0.046367
     25 H6M2        16.4620   -10.5670   -59.5160 hc         1 YYH       0.046367
     26 H6M3        17.4890    -9.3710   -60.3400 hc         1 YYH       0.046367
     27 HO6         16.9440    -7.9440   -58.6130 ho         1 YYH       0.501000
@<TRIPOS>BOND
     1     1     7 1   
     2     1    27 1   
     3     2     3 1   
     4     2     9 1   
     5     2    13 1   
     6     2    14 1   
     7     3     4 1   
     8     3    10 1   
     9     3    16 1   
    10     4     5 1   
    11     4    11 1   
    12     4    18 1   
    13     5     6 1   
    14     5    12 1   
    15     5    20 1   
    16     6     7 1   
    17     6    13 1   
    18     6    22 1   
    19     7     8 1   
    20     7    23 1   
    21     8    24 1   
    22     8    25 1   
    23     8    26 1   
    24     9    15 1   
    25    10    17 1   
    26    11    19 1   
    27    12    21 1   
@<TRIPOS>SUBSTRUCTURE
     1 YYH         1 TEMP              0 ****  ****    0 ROOT
