@<TRIPOS>MOLECULE
YYH
   27    27     1     0     0
SMALL
abcg2


@<TRIPOS>ATOM
      1 O6          15.8360    -8.0770   -58.5710 oh         1 YYH      -0.715000
      2 C1          12.5940   -10.6360   -58.7140 c6         1 YYH       0.397300
      3 C2          11.5440    -9.5710   -58.3840 c6         1 YYH       0.112300
      4 C3          11.6510    -8.4050   -59.3610 c6         1 YYH       0.134300
      5 C4          13.0810    -7.8840   -59.3860 c6         1 YYH       0.107300
      6 C5          14.0140    -9.0400   -59.7610 c6         1 YYH       0.156300
      7 C6          15.4820    -8.6460   -59.8150 c3         1 YYH       0.179300
      8 C6M         16.3830    -9.8190   -60.1770 c3         1 YYH      -0.121100
      9 O1          12.2980   -11.2940   -59.9150 oh         1 YYH      -0.750000
     10 O2          11.7830    -9.1640   -57.0580 oh         1 YYH      -0.707000
     11 O3          10.7310    -7.4200   -58.9530 oh         1 YYH      -0.731000
     12 O4          13.1430    -6.8430   -60.3390 oh         1 YYH      -0.732000
     13 O5          13.8670   -10.0940   -58.8220 os         1 YYH      -0.413000
     14 H1          12.6480   -11.3480   -57.8790 h2         1 YYH       0.086700
     15 HO1         11.4100   -11.6630   -59.8640 ho         1 YYH       0.521000
     16 H2          10.5450   -10.0240   -58.4740 h1         1 YYH       0.042700
     17 HO2         11.2030    -8.4190   -56.8680 ho         1 YYH       0.523000
     18 H3          11.4030    -8.7760   -60.3670 h1         1 YYH       0.056700
     19 HO3         10.9030    -6.6230   -59.4660 ho         1 YYH       0.526000
     20 H4          13.3410    -7.5160   -58.3880 h1         1 YYH       0.080700
     21 HO4         13.7980    -6.2010   -60.0540 ho         1 YYH       0.514000
     22 H5          13.7460    -9.3800   -60.7720 h1         1 YYH       0.063700
     23 H61         15.5670    -7.9020   -60.6190 h1         1 YYH       0.029700
     24 H6M1        16.0850   -10.2590   -61.1300 hc         1 YYH       0.046367
     25 H6M2        16.3570   -10.5980   -59.4170 hc         1 YYH       0.046367
     26 H6M3        17.4150    -9.4820   -60.2840 hc         1 YYH       0.046367
     27 HO6         16.7350    -7.7440   -58.6400 ho         1 YYH       0.501000
@<TRIPOS>BOND
     1     1     7 1   
     2     1    27 1   
     3     2     3 1   
     4     2     9 1   
     5     2    13 1   
     6     2    14 1   
     7     3     4 1   
     8     3    10 1   
     9     3    16 1   
    10     4     5 1   
    11     4    11 1   
    12     4    18 1   
    13     5     6 1   
    14     5    12 1   
    15     5    20 1   
    16     6     7 1   
    17     6    13 1   
    18     6    22 1   
    19     7     8 1   
    20     7    23 1   
    21     8    24 1   
    22     8    25 1   
    23     8    26 1   
    24     9    15 1   
    25    10    17 1   
    26    11    19 1   
    27    12    21 1   
@<TRIPOS>SUBSTRUCTURE
     1 YYH         1 TEMP              0 ****  ****    0 ROOT
