@<TRIPOS>MOLECULE
YYI
   16    16     1     0     0
SMALL
No Charge or Current Charge


@<TRIPOS>ATOM
      1 C4          -6.1100   -32.2340    16.3960 c          1 YYI       0.687500
      2 C5          -5.2430   -31.1610    14.5290 ce         1 YYI       0.529500
      3 O1          -7.2380   -32.2980    16.8580 o          1 YYI      -0.482100
      4 C3          -4.8750   -31.8790    17.2320 c6         1 YYI      -0.189200
      5 C2          -4.2680   -30.5780    16.7080 c2         1 YYI      -0.136200
      6 N           -5.8910   -32.1940    15.0090 nf         1 YYI      -0.625100
      7 C1          -4.4320   -30.2640    15.3950 ce         1 YYI      -0.089500
      8 O           -3.9060   -29.1410    14.7660 os         1 YYI      -0.386100
      9 C           -3.0760   -28.2030    15.4810 c3         1 YYI       0.395300
     10 F           -2.8020   -27.1340    14.7000 f          1 YYI      -0.111500
     11 F1          -1.8840   -28.7590    15.7990 f          1 YYI      -0.111500
     12 H1          -5.2790   -30.9430    13.4590 h4         1 YYI       0.038800
     13 H2          -5.1360   -31.8240    18.2970 hc         1 YYI       0.103200
     14 H3          -4.1240   -32.6580    17.0500 hc         1 YYI       0.103200
     15 H4          -3.6960   -29.9690    17.4120 ha         1 YYI       0.211000
     16 H5          -3.5700   -27.8550    16.3940 h3         1 YYI       0.062700
@<TRIPOS>BOND
     1     1     3 2   
     2     1     4 1   
     3     1     6 1   
     4     2     6 2   
     5     2     7 1   
     6     2    12 1   
     7     4     5 1   
     8     4    13 1   
     9     4    14 1   
    10     5     7 2   
    11     5    15 1   
    12     7     8 1   
    13     8     9 1   
    14     9    10 1   
    15     9    11 1   
    16     9    16 1   
@<TRIPOS>SUBSTRUCTURE
     1 YYI         1 TEMP              0 ****  ****    0 ROOT
