@<TRIPOS>MOLECULE
YYI
   16    16     1     0     0
SMALL
abcg2


@<TRIPOS>ATOM
      1 C4          -6.1400   -32.0500    16.4790 c          1 YYI       0.687500
      2 C5          -5.4060   -30.5820    14.8590 ce         1 YYI       0.529500
      3 O1          -7.0500   -32.6990    16.9390 o          1 YYI      -0.482100
      4 C3          -4.7950   -32.0020    17.1670 c6         1 YYI      -0.189200
      5 C2          -3.8040   -31.0650    16.5910 c2         1 YYI      -0.136200
      6 N           -6.3400   -31.3450    15.2880 nf         1 YYI      -0.625100
      7 C1          -4.1140   -30.3800    15.4930 ce         1 YYI      -0.089500
      8 O           -3.2340   -29.5300    14.8680 os         1 YYI      -0.386100
      9 C           -3.3000   -28.2210    15.2520 c3         1 YYI       0.395300
     10 F           -2.4960   -27.5510    14.4180 f          1 YYI      -0.111500
     11 F1          -2.7940   -28.0760    16.4990 f          1 YYI      -0.111500
     12 H1          -5.5890   -30.0470    13.9280 h4         1 YYI       0.038800
     13 H2          -4.9520   -31.7620    18.2240 hc         1 YYI       0.103200
     14 H3          -4.3730   -33.0140    17.1800 hc         1 YYI       0.103200
     15 H4          -2.8360   -30.9740    17.0680 ha         1 YYI       0.211000
     16 H5          -4.3070   -27.7970    15.2330 h3         1 YYI       0.062700
@<TRIPOS>BOND
     1     1     3 2   
     2     1     4 1   
     3     1     6 1   
     4     2     6 2   
     5     2     7 1   
     6     2    12 1   
     7     4     5 1   
     8     4    13 1   
     9     4    14 1   
    10     5     7 2   
    11     5    15 1   
    12     7     8 1   
    13     8     9 1   
    14     9    10 1   
    15     9    11 1   
    16     9    16 1   
@<TRIPOS>SUBSTRUCTURE
     1 YYI         1 TEMP              0 ****  ****    0 ROOT
