@<TRIPOS>MOLECULE
YYJ
   36    36     1     0     0
SMALL
No Charge or Current Charge


@<TRIPOS>ATOM
      1 C1          27.4520    15.7060     8.7380 c3         1 YYJ       0.200600
      2 C2          26.2940    16.1970     7.8030 c5         1 YYJ       0.382000
      3 C3          24.9650    15.3260     7.9710 c5         1 YYJ       0.131300
      4 C4          24.9090    14.5240     6.6300 c5         1 YYJ       0.200300
      5 C5          25.6350    15.4890     5.6460 c5         1 YYJ       0.148300
      6 C6          24.7360    16.6570     5.1120 c3         1 YYJ       0.190600
      7 O1          27.0990    15.9100    10.1210 os         1 YYJ      -0.555700
      8 O1S1        29.3360    16.5300    10.9280 o          1 YYJ      -0.740867
      9 O1S3        23.0190    15.5670    10.2780 o          1 YYJ      -0.719533
     10 O1S4        24.8460    12.1570     8.7450 o          1 YYJ      -0.722533
     11 O1S6        24.9730    16.5270     1.3360 o          1 YYJ      -0.718867
     12 O2          26.1010    17.5980     8.0020 oh         1 YYJ      -0.720000
     13 O2S1        27.6090    15.7620    12.5170 o          1 YYJ      -0.740867
     14 O2S3        21.9280    17.4110     9.0460 o          1 YYJ      -0.719533
     15 O2S4        25.9620    10.8720     6.9580 o          1 YYJ      -0.722533
     16 O2S6        24.1920    14.8180     2.9420 o          1 YYJ      -0.718867
     17 O3          23.7470    16.1400     8.0020 os         1 YYJ      -0.577700
     18 O3S1        28.6320    14.1660    10.9330 o          1 YYJ      -0.740867
     19 O3S3        24.2550    17.6590     9.8380 o          1 YYJ      -0.719533
     20 O3S4        23.7180    11.8340     6.5760 o          1 YYJ      -0.722533
     21 O3S6        22.9040    16.8980     2.6330 o          1 YYJ      -0.718867
     22 O4          25.6880    13.2980     6.7430 os         1 YYJ      -0.598700
     23 O5          26.7380    15.9960     6.4410 os         1 YYJ      -0.486000
     24 O6          25.0880    16.9690     3.7450 os         1 YYJ      -0.631700
     25 S1          28.2680    15.5620    11.2180 s6         1 YYJ       1.519300
     26 S3          23.1830    16.7460     9.4190 s6         1 YYJ       1.509300
     27 S4          24.9920    11.9210     7.3040 s6         1 YYJ       1.504300
     28 S6          24.2140    16.2360     2.5600 s6         1 YYJ       1.496300
     29 H11         27.6360    14.6420     8.5360 h1         1 YYJ       0.035700
     30 H12         28.3640    16.2610     8.4800 h1         1 YYJ       0.035700
     31 HO2         25.4630    17.6480     8.7700 ho         1 YYJ       0.520000
     32 H3          25.0020    14.6660     8.8470 h1         1 YYJ       0.118700
     33 H4          23.8840    14.3030     6.3000 h1         1 YYJ       0.113700
     34 H5          26.0410    14.9320     4.7910 h1         1 YYJ       0.068700
     35 H61         23.6760    16.3790     5.1970 h1         1 YYJ       0.050700
     36 H62         24.8790    17.5420     5.7420 h1         1 YYJ       0.050700
@<TRIPOS>BOND
     1     1     2 1   
     2     1     7 1   
     3     1    29 1   
     4     1    30 1   
     5     2     3 1   
     6     2    12 1   
     7     2    23 1   
     8     3     4 1   
     9     3    17 1   
    10     3    32 1   
    11     4     5 1   
    12     4    22 1   
    13     4    33 1   
    14     5     6 1   
    15     5    23 1   
    16     5    34 1   
    17     6    24 1   
    18     6    35 1   
    19     6    36 1   
    20     7    25 1   
    21     8    25 1   
    22     9    26 1   
    23    10    27 1   
    24    11    28 1   
    25    12    31 1   
    26    13    25 1   
    27    14    26 1   
    28    15    27 1   
    29    16    28 1   
    30    17    26 1   
    31    18    25 1   
    32    19    26 1   
    33    20    27 1   
    34    21    28 1   
    35    22    27 1   
    36    24    28 1   
@<TRIPOS>SUBSTRUCTURE
     1 YYJ         1 TEMP              0 ****  ****    0 ROOT
