@<TRIPOS>MOLECULE
YYJ
   36    36     1     0     0
SMALL
abcg2


@<TRIPOS>ATOM
      1 C1          27.4010    15.3380     8.7500 c3         1 YYJ       0.200600
      2 C2          26.4210    16.1180     7.8710 c5         1 YYJ       0.382000
      3 C3          25.0410    15.4050     7.7590 c5         1 YYJ       0.131300
      4 C4          25.1090    14.7230     6.3890 c5         1 YYJ       0.200300
      5 C5          26.0370    15.6500     5.6060 c5         1 YYJ       0.148300
      6 C6          25.3720    16.8490     4.9180 c3         1 YYJ       0.190600
      7 O1          26.8940    15.2760    10.0740 os         1 YYJ      -0.555700
      8 O1S1        28.1190    17.1470    11.1520 o          1 YYJ      -0.740867
      9 O1S3        22.6220    15.4650     9.5960 o          1 YYJ      -0.719533
     10 O1S4        25.2930    12.2590     8.5570 o          1 YYJ      -0.722533
     11 O1S6        23.3230    16.1510     1.8930 o          1 YYJ      -0.718867
     12 O2          26.3330    17.4410     8.2670 oh         1 YYJ      -0.720000
     13 O2S1        27.0440    15.3610    12.4600 o          1 YYJ      -0.740867
     14 O2S3        22.2000    17.6780     8.5890 o          1 YYJ      -0.719533
     15 O2S4        25.6750    11.0630     6.4470 o          1 YYJ      -0.722533
     16 O2S6        23.8960    14.3430     3.4490 o          1 YYJ      -0.718867
     17 O3          23.9690    16.3320     7.6980 os         1 YYJ      -0.577700
     18 O3S1        29.0900    14.8970    11.1600 o          1 YYJ      -0.740867
     19 O3S3        24.2080    17.2930     9.9690 o          1 YYJ      -0.719533
     20 O3S4        23.5810    12.3250     6.7980 o          1 YYJ      -0.722533
     21 O3S6        22.5880    16.2640     4.2470 o          1 YYJ      -0.718867
     22 O4          25.7630    13.4650     6.4360 os         1 YYJ      -0.598700
     23 O5          26.9660    16.1070     6.5750 os         1 YYJ      -0.486000
     24 O6          24.9610    16.5830     3.5860 os         1 YYJ      -0.631700
     25 S1          27.8820    15.7120    11.3170 s6         1 YYJ       1.519300
     26 S3          23.1730    16.7170     9.0880 s6         1 YYJ       1.509300
     27 S4          25.0000    12.1660     7.1230 s6         1 YYJ       1.504300
     28 S6          23.5670    15.7620     3.2790 s6         1 YYJ       1.496300
     29 H11         27.5270    14.3200     8.3720 h1         1 YYJ       0.035700
     30 H12         28.3760    15.8340     8.6990 h1         1 YYJ       0.035700
     31 HO2         25.7240    17.5110     9.0280 ho         1 YYJ       0.520000
     32 H3          24.8830    14.6860     8.5660 h1         1 YYJ       0.118700
     33 H4          24.1160    14.6290     5.9500 h1         1 YYJ       0.113700
     34 H5          26.5930    15.0900     4.8480 h1         1 YYJ       0.068700
     35 H61         24.5510    17.2590     5.5080 h1         1 YYJ       0.050700
     36 H62         26.1300    17.6290     4.8240 h1         1 YYJ       0.050700
@<TRIPOS>BOND
     1     1     2 1   
     2     1     7 1   
     3     1    29 1   
     4     1    30 1   
     5     2     3 1   
     6     2    12 1   
     7     2    23 1   
     8     3     4 1   
     9     3    17 1   
    10     3    32 1   
    11     4     5 1   
    12     4    22 1   
    13     4    33 1   
    14     5     6 1   
    15     5    23 1   
    16     5    34 1   
    17     6    24 1   
    18     6    35 1   
    19     6    36 1   
    20     7    25 1   
    21     8    25 1   
    22     9    26 1   
    23    10    27 1   
    24    11    28 1   
    25    12    31 1   
    26    13    25 1   
    27    14    26 1   
    28    15    27 1   
    29    16    28 1   
    30    17    26 1   
    31    18    25 1   
    32    19    26 1   
    33    20    27 1   
    34    21    28 1   
    35    22    27 1   
    36    24    28 1   
@<TRIPOS>SUBSTRUCTURE
     1 YYJ         1 TEMP              0 ****  ****    0 ROOT
