@<TRIPOS>MOLECULE
YYK
   23    23     1     0     0
SMALL
abcg2


@<TRIPOS>ATOM
      1 C1          34.3740    30.4590    27.2490 c6         1 YYK       0.401300
      2 C2          33.0330    31.1610    27.4230 c6         1 YYK       0.154300
      3 C3          33.2750    32.6310    27.7460 c6         1 YYK       0.131300
      4 C4          34.2200    32.7770    28.9320 c6         1 YYK       0.105300
      5 C5          35.5000    31.9810    28.6620 c6         1 YYK       0.156300
      6 C6          36.4730    32.0060    29.8210 c3         1 YYK      -0.090100
      7 O1          34.1530    29.1120    27.0690 oh         1 YYK      -0.680000
      8 O2          32.3010    31.0030    26.2350 oh         1 YYK      -0.705000
      9 O3          32.0180    33.2190    27.9840 oh         1 YYK      -0.724000
     10 O4          34.4790    34.1530    29.0920 oh         1 YYK      -0.724000
     11 O5          35.1530    30.6320    28.4100 os         1 YYK      -0.492000
     12 H1          34.9070    30.9030    26.3890 h2         1 YYK       0.026700
     13 HO1         34.9560    28.7010    26.7320 ho         1 YYK       0.517000
     14 H2          32.5140    30.6970    28.2780 h1         1 YYK       0.067700
     15 HO2         31.4950    31.5250    26.3090 ho         1 YYK       0.522000
     16 H3          33.7610    33.0960    26.8720 h1         1 YYK       0.050700
     17 HO3         32.1370    34.1720    28.0490 ho         1 YYK       0.523000
     18 H4          33.7350    32.3590    29.8270 h1         1 YYK       0.059700
     19 HO4         34.7390    34.3190    30.0030 ho         1 YYK       0.513000
     20 H5          35.9920    32.4100    27.7730 h1         1 YYK       0.044700
     21 H63         36.0240    31.5930    30.7260 hc         1 YYK       0.047700
     22 H61         37.3680    31.4300    29.5860 hc         1 YYK       0.047700
     23 H62         36.7910    33.0260    30.0350 hc         1 YYK       0.047700
@<TRIPOS>BOND
     1     1     2 1   
     2     1     7 1   
     3     1    11 1   
     4     1    12 1   
     5     2     3 1   
     6     2     8 1   
     7     2    14 1   
     8     3     4 1   
     9     3     9 1   
    10     3    16 1   
    11     4     5 1   
    12     4    10 1   
    13     4    18 1   
    14     5     6 1   
    15     5    11 1   
    16     5    20 1   
    17     6    21 1   
    18     6    22 1   
    19     6    23 1   
    20     7    13 1   
    21     8    15 1   
    22     9    17 1   
    23    10    19 1   
@<TRIPOS>SUBSTRUCTURE
     1 YYK         1 TEMP              0 ****  ****    0 ROOT
