@<TRIPOS>MOLECULE
YYK
   23    23     1     0     0
SMALL
No Charge or Current Charge


@<TRIPOS>ATOM
      1 C1          34.4090    30.4610    27.0950 c6         1 YYK       0.401300
      2 C2          33.0010    31.1240    27.3260 c6         1 YYK       0.154300
      3 C3          33.2170    32.6250    27.6680 c6         1 YYK       0.131300
      4 C4          34.1690    32.7690    28.8900 c6         1 YYK       0.105300
      5 C5          35.5080    32.0200    28.5780 c6         1 YYK       0.156300
      6 C6          36.4910    31.9980    29.7750 c3         1 YYK      -0.090100
      7 O1          34.3270    29.0570    26.9570 oh         1 YYK      -0.680000
      8 O2          32.1120    31.0190    26.1880 oh         1 YYK      -0.705000
      9 O3          31.9640    33.2820    27.9340 oh         1 YYK      -0.724000
     10 O4          34.3740    34.1700    29.1800 oh         1 YYK      -0.724000
     11 O5          35.2340    30.6370    28.2520 os         1 YYK      -0.492000
     12 H1          34.9010    30.9010    26.2150 h2         1 YYK       0.026700
     13 HO1         34.9660    28.7470    27.6350 ho         1 YYK       0.517000
     14 H2          32.5430    30.6380    28.2000 h1         1 YYK       0.067700
     15 HO2         31.4560    31.7440    26.3280 ho         1 YYK       0.522000
     16 H3          33.7060    33.1040    26.8050 h1         1 YYK       0.050700
     17 HO3         32.2180    34.0990    28.4310 ho         1 YYK       0.523000
     18 H4          33.6980    32.2740    29.7540 h1         1 YYK       0.059700
     19 HO4         34.8560    34.2280    30.0390 ho         1 YYK       0.513000
     20 H5          36.0100    32.4920    27.7200 h1         1 YYK       0.044700
     21 H63         36.0260    31.5610    30.6660 hc         1 YYK       0.047700
     22 H61         37.3830    31.4050    29.5360 hc         1 YYK       0.047700
     23 H62         36.8310    33.0080    30.0300 hc         1 YYK       0.047700
@<TRIPOS>BOND
     1     1     2 1   
     2     1     7 1   
     3     1    11 1   
     4     1    12 1   
     5     2     3 1   
     6     2     8 1   
     7     2    14 1   
     8     3     4 1   
     9     3     9 1   
    10     3    16 1   
    11     4     5 1   
    12     4    10 1   
    13     4    18 1   
    14     5     6 1   
    15     5    11 1   
    16     5    20 1   
    17     6    21 1   
    18     6    22 1   
    19     6    23 1   
    20     7    13 1   
    21     8    15 1   
    22     9    17 1   
    23    10    19 1   
@<TRIPOS>SUBSTRUCTURE
     1 YYK         1 TEMP              0 ****  ****    0 ROOT
