@<TRIPOS>MOLECULE
YYM
   20    20     1     0     0
SMALL
abcg2


@<TRIPOS>ATOM
      1 C1          16.7490    29.7190    42.6940 c6         1 YYM       0.398300
      2 C2          17.8780    29.3050    41.7670 c6         1 YYM       0.147300
      3 C3          17.4870    29.6400    40.3100 c6         1 YYM       0.095300
      4 C4          16.5920    30.9030    40.2480 c6         1 YYM       0.089300
      5 C5          16.8140    31.7960    41.4590 c6         1 YYM       0.184600
      6 O1          17.0760    29.3640    43.9910 oh         1 YYM      -0.683000
      7 O2          19.0510    29.9710    42.1440 oh         1 YYM      -0.693000
      8 O3          18.6760    29.8210    39.5820 oh         1 YYM      -0.723000
      9 O4          16.8720    31.6600    39.0920 oh         1 YYM      -0.715000
     10 O5          16.5190    31.1130    42.6610 os         1 YYM      -0.489000
     11 H1          15.8350    29.1950    42.3700 h2         1 YYM       0.016700
     12 HO1         16.2740    29.3370    44.5230 ho         1 YYM       0.513000
     13 H2          17.9990    28.2150    41.8550 h1         1 YYM       0.060700
     14 HO2         19.5510    30.1120    41.3280 ho         1 YYM       0.523000
     15 H3          16.9200    28.7940    39.9020 h1         1 YYM       0.049700
     16 HO3         18.5240    30.5620    38.9770 ho         1 YYM       0.533000
     17 H4          15.5460    30.5780    40.2540 h1         1 YYM       0.047700
     18 HO4         16.3430    31.3240    38.3610 ho         1 YYM       0.515000
     19 H52         16.1410    32.6550    41.4040 h1         1 YYM       0.064700
     20 H51         17.8410    32.1810    41.4630 h1         1 YYM       0.064700
@<TRIPOS>BOND
     1     1     2 1   
     2     1     6 1   
     3     1    10 1   
     4     1    11 1   
     5     2     3 1   
     6     2     7 1   
     7     2    13 1   
     8     3     4 1   
     9     3     8 1   
    10     3    15 1   
    11     4     5 1   
    12     4     9 1   
    13     4    17 1   
    14     5    10 1   
    15     5    19 1   
    16     5    20 1   
    17     6    12 1   
    18     7    14 1   
    19     8    16 1   
    20     9    18 1   
@<TRIPOS>SUBSTRUCTURE
     1 YYM         1 TEMP              0 ****  ****    0 ROOT
