@<TRIPOS>MOLECULE
YYM
   20    20     1     0     0
SMALL
No Charge or Current Charge


@<TRIPOS>ATOM
      1 C1          16.5300    29.5930    42.6530 c6         1 YYM       0.398300
      2 C2          17.8430    29.2390    41.8660 c6         1 YYM       0.147300
      3 C3          17.6720    29.6290    40.3600 c6         1 YYM       0.095300
      4 C4          16.6050    30.7500    40.1380 c6         1 YYM       0.089300
      5 C5          16.5670    31.7040    41.3710 c6         1 YYM       0.184600
      6 O1          16.6990    29.2980    44.0280 oh         1 YYM      -0.683000
      7 O2          18.9940    29.9490    42.3690 oh         1 YYM      -0.693000
      8 O3          18.9240    30.1030    39.8260 oh         1 YYM      -0.723000
      9 O4          16.9140    31.4540    38.9110 oh         1 YYM      -0.715000
     10 O5          16.2200    31.0050    42.6020 os         1 YYM      -0.489000
     11 H1          15.6870    29.0180    42.2430 h2         1 YYM       0.016700
     12 HO1         17.5450    29.7520    44.2420 ho         1 YYM       0.513000
     13 H2          18.0110    28.1540    41.9270 h1         1 YYM       0.060700
     14 HO2         19.4310    30.2080    41.5120 ho         1 YYM       0.523000
     15 H3          17.3400    28.7390    39.8040 h1         1 YYM       0.049700
     16 HO3         18.6050    30.7610    39.1470 ho         1 YYM       0.533000
     17 H4          15.6170    30.2720    40.0530 h1         1 YYM       0.047700
     18 HO4         16.0970    31.9330    38.6280 ho         1 YYM       0.515000
     19 H52         15.8360    32.5090    41.2080 h1         1 YYM       0.064700
     20 H51         17.5530    32.1750    41.5000 h1         1 YYM       0.064700
@<TRIPOS>BOND
     1     1     2 1   
     2     1     6 1   
     3     1    10 1   
     4     1    11 1   
     5     2     3 1   
     6     2     7 1   
     7     2    13 1   
     8     3     4 1   
     9     3     8 1   
    10     3    15 1   
    11     4     5 1   
    12     4     9 1   
    13     4    17 1   
    14     5    10 1   
    15     5    19 1   
    16     5    20 1   
    17     6    12 1   
    18     7    14 1   
    19     8    16 1   
    20     9    18 1   
@<TRIPOS>SUBSTRUCTURE
     1 YYM         1 TEMP              0 ****  ****    0 ROOT
