@<TRIPOS>MOLECULE
YYQ
   30    30     1     0     0
SMALL
abcg2


@<TRIPOS>ATOM
      1 C1          -2.5790     1.9240    36.9860 c6         1 YYQ       0.388300
      2 C2          -3.0470     2.4010    38.3810 c6         1 YYQ       0.116700
      3 C7          -5.3810     1.5340    38.4380 c          1 YYQ       0.608100
      4 C8          -6.8210     1.9750    38.5600 c3         1 YYQ      -0.180100
      5 C3          -2.4010     1.5380    39.4690 c6         1 YYQ       0.159300
      6 C4          -0.9890     1.1480    39.0480 c6         1 YYQ       0.116300
      7 C5          -1.1100     0.2440    37.8050 c6         1 YYQ       0.147300
      8 C6           0.1420     0.2370    36.9340 c3         1 YYQ       0.129600
      9 N2          -4.4780     2.5250    38.5390 ns         1 YYQ      -0.489900
     10 O1          -3.5810     2.1160    36.0630 oh         1 YYQ      -0.626000
     11 O7          -5.0850     0.3630    38.2530 o          1 YYQ      -0.598100
     12 O3          -2.4400     2.2670    40.6700 oh         1 YYQ      -0.645000
     13 O4          -0.2410     2.3230    38.8370 oh         1 YYQ      -0.714000
     14 O5          -2.2350     0.5570    37.0020 os         1 YYQ      -0.470000
     15 O6           1.2600     0.0300    37.7710 oh         1 YYQ      -0.734000
     16 H1          -1.6890     2.5140    36.7210 h2         1 YYQ       0.025700
     17 HO1         -3.1950     2.1010    35.1810 ho         1 YYQ       0.453000
     18 H2          -2.6690     3.4180    38.4960 h1         1 YYQ       0.076700
     19 H81         -7.3500     1.3160    39.2470 hc         1 YYQ       0.057033
     20 H82         -6.9380     3.0030    38.8990 hc         1 YYQ       0.057033
     21 H83         -7.3050     1.8850    37.5870 hc         1 YYQ       0.057033
     22 HN2         -4.8260     3.4550    38.6950 hn         1 YYQ       0.314500
     23 H3          -2.9700     0.6070    39.5580 h1         1 YYQ       0.074700
     24 HO3         -2.2600     1.6630    41.3970 ho         1 YYQ       0.445000
     25 H4          -0.5370     0.5470    39.8480 h1         1 YYQ       0.050700
     26 HO4          0.6770     2.0610    38.7020 ho         1 YYQ       0.514000
     27 H5          -1.2910    -0.7710    38.1750 h1         1 YYQ       0.086700
     28 H61          0.0450    -0.5600    36.1870 h1         1 YYQ       0.033700
     29 H62          0.2160     1.1840    36.3850 h1         1 YYQ       0.033700
     30 HO6          2.0560     0.0840    37.2360 ho         1 YYQ       0.511000
@<TRIPOS>BOND
     1     1     2 1   
     2     1    10 1   
     3     1    14 1   
     4     1    16 1   
     5     2     5 1   
     6     2     9 1   
     7     2    18 1   
     8     3     4 1   
     9     3     9 1   
    10     3    11 2   
    11     4    19 1   
    12     4    20 1   
    13     4    21 1   
    14     5     6 1   
    15     5    12 1   
    16     5    23 1   
    17     6     7 1   
    18     6    13 1   
    19     6    25 1   
    20     7     8 1   
    21     7    14 1   
    22     7    27 1   
    23     8    15 1   
    24     8    28 1   
    25     8    29 1   
    26     9    22 1   
    27    10    17 1   
    28    12    24 1   
    29    13    26 1   
    30    15    30 1   
@<TRIPOS>SUBSTRUCTURE
     1 YYQ         1 TEMP              0 ****  ****    0 ROOT
