@<TRIPOS>MOLECULE
YYQ
   30    30     1     0     0
SMALL
No Charge or Current Charge


@<TRIPOS>ATOM
      1 C1          -2.6490     1.3030    36.7450 c6         1 YYQ       0.388300
      2 C2          -3.0010     1.9810    38.1300 c6         1 YYQ       0.116700
      3 C7          -5.5470     1.8230    38.2780 c          1 YYQ       0.608100
      4 C8          -6.8010     2.6330    38.5680 c3         1 YYQ      -0.180100
      5 C3          -2.6120     1.0620    39.3310 c6         1 YYQ       0.159300
      6 C4          -1.1290     0.5850    39.2350 c6         1 YYQ       0.116300
      7 C5          -0.7400     0.1630    37.7680 c6         1 YYQ       0.147300
      8 C6           0.3300     1.0730    37.0580 c3         1 YYQ       0.129600
      9 N2          -4.3760     2.5420    38.2590 ns         1 YYQ      -0.489900
     10 O1          -3.8020     0.9480    35.9950 oh         1 YYQ      -0.626000
     11 O7          -5.5720     0.6230    38.0470 o          1 YYQ      -0.598100
     12 O3          -2.7920     1.7250    40.5940 oh         1 YYQ      -0.645000
     13 O4          -0.2340     1.5910    39.7600 oh         1 YYQ      -0.714000
     14 O5          -1.9310     0.0690    36.9410 os         1 YYQ      -0.470000
     15 O6           1.5500     1.1810    37.8180 oh         1 YYQ      -0.734000
     16 H1          -2.0440     1.9970    36.1440 h2         1 YYQ       0.025700
     17 HO1         -4.4430     0.6240    36.6740 ho         1 YYQ       0.453000
     18 H2          -2.3300     2.8500    38.1940 h1         1 YYQ       0.076700
     19 H81         -7.7110     2.0230    38.5530 hc         1 YYQ       0.057033
     20 H82         -6.6770     3.1510    39.5260 hc         1 YYQ       0.057033
     21 H83         -6.8610     3.4670    37.8590 hc         1 YYQ       0.057033
     22 HN2         -4.4640     3.5320    38.4550 hn         1 YYQ       0.314500
     23 H3          -3.2530     0.1690    39.2890 h1         1 YYQ       0.074700
     24 HO3         -1.8760     2.0160    40.8220 ho         1 YYQ       0.445000
     25 H4          -1.0440    -0.3180    39.8580 h1         1 YYQ       0.050700
     26 HO4          0.5810     1.5290    39.1810 ho         1 YYQ       0.514000
     27 H5          -0.3040    -0.8450    37.8220 h1         1 YYQ       0.086700
     28 H61          0.5370     0.6420    36.0690 h1         1 YYQ       0.033700
     29 H62         -0.0860     2.0770    36.9010 h1         1 YYQ       0.033700
     30 HO6          2.2600     1.4720    37.1930 ho         1 YYQ       0.511000
@<TRIPOS>BOND
     1     1     2 1   
     2     1    10 1   
     3     1    14 1   
     4     1    16 1   
     5     2     5 1   
     6     2     9 1   
     7     2    18 1   
     8     3     4 1   
     9     3     9 1   
    10     3    11 2   
    11     4    19 1   
    12     4    20 1   
    13     4    21 1   
    14     5     6 1   
    15     5    12 1   
    16     5    23 1   
    17     6     7 1   
    18     6    13 1   
    19     6    25 1   
    20     7     8 1   
    21     7    14 1   
    22     7    27 1   
    23     8    15 1   
    24     8    28 1   
    25     8    29 1   
    26     9    22 1   
    27    10    17 1   
    28    12    24 1   
    29    13    26 1   
    30    15    30 1   
@<TRIPOS>SUBSTRUCTURE
     1 YYQ         1 TEMP              0 ****  ****    0 ROOT
