@<TRIPOS>MOLECULE
YYZ
   19    19     1     0     0
SMALL
No Charge or Current Charge


@<TRIPOS>ATOM
      1 C1           4.4830    -0.2670    -0.0520 c          1 YYZ       0.695200
      2 C7           0.5220    -0.4130     0.0330 ca         1 YYZ      -0.012800
      3 C2           3.0410     0.1330    -0.0070 ce         1 YYZ      -0.205200
      4 C8          -0.4080    -1.4720     0.0220 ca         1 YYZ      -0.078000
      5 C3           1.9670    -0.7180    -0.0090 cf         1 YYZ      -0.244200
      6 C9          -1.7900    -1.2160     0.0610 ca         1 YYZ       0.060000
      7 C4          -2.2630     0.1130     0.1130 ca         1 YYZ       0.120100
      8 C5          -1.3350     1.1740     0.1250 ca         1 YYZ       0.060000
      9 C6           0.0450     0.9130     0.0850 ca         1 YYZ      -0.078000
     10 O2           4.7670    -1.4550    -0.0950 o          1 YYZ      -0.718500
     11 O4          -3.6100     0.3750     0.1520 oh         1 YYZ      -0.524100
     12 Cl13        -2.9100    -2.5810     0.0440 cl         1 YYZ      -0.220000
     13 Cl14        -1.8920     2.8480     0.1890 cl         1 YYZ      -0.220000
     14 O1           5.3180     0.6230    -0.0430 o          1 YYZ      -0.718500
     15 H1           2.8770     1.2060     0.0300 ha         1 YYZ       0.143000
     16 H2          -0.0620    -2.5010    -0.0180 ha         1 YYZ       0.137000
     17 H3           2.1920    -1.7870    -0.0470 ha         1 YYZ       0.195000
     18 H4           0.7350     1.7510     0.0960 ha         1 YYZ       0.137000
     19 H5          -3.7280     1.3500     0.1850 ho         1 YYZ       0.470000
@<TRIPOS>BOND
     1     1     3 1   
     2     1    10 1   
     3     1    14 1   
     4     2     4 ar  
     5     2     5 1   
     6     2     9 ar  
     7     3     5 2   
     8     3    15 1   
     9     4     6 ar  
    10     4    16 1   
    11     5    17 1   
    12     6     7 ar  
    13     6    12 1   
    14     7     8 ar  
    15     7    11 1   
    16     8     9 ar  
    17     8    13 1   
    18     9    18 1   
    19    11    19 1   
@<TRIPOS>SUBSTRUCTURE
     1 YYZ         1 TEMP              0 ****  ****    0 ROOT
