@<TRIPOS>MOLECULE
YYZ
   19    19     1     0     0
SMALL
bcc


@<TRIPOS>ATOM
      1 C1           4.4380    -0.2950    -0.0590 c          1 YYZ       0.905800
      2 C7           0.5450    -0.3940     0.0430 ca         1 YYZ      -0.012800
      3 C2           2.9910     0.1410    -0.0060 ce         1 YYZ      -0.155200
      4 C8          -0.3860    -1.4320     0.0290 ca         1 YYZ      -0.096000
      5 C3           1.9710    -0.7190    -0.0020 cf         1 YYZ      -0.194200
      6 C9          -1.7420    -1.1710     0.0610 ca         1 YYZ      -0.031600
      7 C4          -2.2370     0.1310     0.1100 ca         1 YYZ       0.120100
      8 C5          -1.2920     1.1610     0.1290 ca         1 YYZ      -0.031600
      9 C6           0.0650     0.9160     0.0960 ca         1 YYZ      -0.096000
     10 O2           4.6760    -1.5180    -0.1060 o          1 YYZ      -0.823800
     11 O4          -3.5550     0.3200     0.1360 oh         1 YYZ      -0.485100
     12 CL13        -2.8740    -2.4750     0.0410 cl         1 YYZ      -0.128400
     13 CL14        -1.8710     2.7930     0.1930 cl         1 YYZ      -0.128400
     14 O1           5.2750     0.6310    -0.0530 o          1 YYZ      -0.823800
     15 H1           2.8130     1.2120     0.0280 ha         1 YYZ       0.093000
     16 H2          -0.0470    -2.4590    -0.0110 ha         1 YYZ       0.155000
     17 H3           2.2030    -1.7800    -0.0400 ha         1 YYZ       0.145000
     18 H4           0.7480     1.7540     0.1100 ha         1 YYZ       0.155000
     19 H5          -3.7730     1.2610     0.1650 ho         1 YYZ       0.431000
@<TRIPOS>BOND
     1     1     3 1   
     2     1    10 1   
     3     1    14 1   
     4     2     4 ar  
     5     2     5 1   
     6     2     9 ar  
     7     3     5 2   
     8     3    15 1   
     9     4     6 ar  
    10     4    16 1   
    11     5    17 1   
    12     6     7 ar  
    13     6    12 1   
    14     7     8 ar  
    15     7    11 1   
    16     8     9 ar  
    17     8    13 1   
    18     9    18 1   
    19    11    19 1   
@<TRIPOS>SUBSTRUCTURE
     1 YYZ         1 TEMP              0 ****  ****    0 ROOT
