@<TRIPOS>MOLECULE
YZ0
   27    27     1     0     0
SMALL
No Charge or Current Charge


@<TRIPOS>ATOM
      1 C1          21.8440    68.7260    13.4460 c6         1 YZ0       0.387300
      2 C1M         23.3680    70.4920    14.1800 c3         1 YZ0       0.144900
      3 C2          20.7000    68.3670    12.4100 c6         1 YZ0       0.157300
      4 C3          20.7110    66.8340    12.1410 c6         1 YZ0       0.135300
      5 C4          22.0900    66.3840    11.5610 c6         1 YZ0       0.105300
      6 C5          23.2820    66.9830    12.3920 c6         1 YZ0       0.154300
      7 C6          24.2100    67.9240    11.5440 c3         1 YZ0       0.136600
      8 O1          22.5190    69.9670    13.1460 os         1 YZ0      -0.451000
      9 O2          20.7970    69.0620    11.1390 oh         1 YZ0      -0.702000
     10 O3          19.6540    66.4630    11.2340 oh         1 YZ0      -0.670000
     11 O4          22.1380    64.9400    11.5010 oh         1 YZ0      -0.723000
     12 O5          22.8070    67.6440    13.6040 os         1 YZ0      -0.464000
     13 O6          25.3680    68.3870    12.2670 oh         1 YZ0      -0.710000
     14 H1          21.3450    68.8510    14.4190 h2         1 YZ0       0.062700
     15 H1M1        23.8320    71.4310    13.8530 h1         1 YZ0       0.036033
     16 H1M2        24.1700    69.7860    14.4300 h1         1 YZ0       0.036033
     17 H1M3        22.7920    70.6970    15.0920 h1         1 YZ0       0.036033
     18 H2          19.7420    68.6150    12.8890 h1         1 YZ0       0.058700
     19 HO2         20.1950    68.5610    10.5390 ho         1 YZ0       0.516000
     20 H3          20.5640    66.3240    13.1060 h1         1 YZ0       0.067700
     21 HO3         19.8420    65.5260    10.9930 ho         1 YZ0       0.466000
     22 H4          22.1650    66.7840    10.5380 h1         1 YZ0       0.048700
     23 HO4         22.8930    64.6890    10.9150 ho         1 YZ0       0.510000
     24 H5          23.9190    66.1470    12.7170 h1         1 YZ0       0.090700
     25 H62         23.6210    68.7740    11.1760 h1         1 YZ0       0.032700
     26 H61         24.5340    67.3600    10.6590 h1         1 YZ0       0.032700
     27 HO6         25.8310    69.0360    11.6870 ho         1 YZ0       0.505000
@<TRIPOS>BOND
     1     1     3 1   
     2     1     8 1   
     3     1    12 1   
     4     1    14 1   
     5     2     8 1   
     6     2    15 1   
     7     2    16 1   
     8     2    17 1   
     9     3     4 1   
    10     3     9 1   
    11     3    18 1   
    12     4     5 1   
    13     4    10 1   
    14     4    20 1   
    15     5     6 1   
    16     5    11 1   
    17     5    22 1   
    18     6     7 1   
    19     6    12 1   
    20     6    24 1   
    21     7    13 1   
    22     7    25 1   
    23     7    26 1   
    24     9    19 1   
    25    10    21 1   
    26    11    23 1   
    27    13    27 1   
@<TRIPOS>SUBSTRUCTURE
     1 YZ0         1 TEMP              0 ****  ****    0 ROOT
