@<TRIPOS>MOLECULE
YZ0
   27    27     1     0     0
SMALL
bcc


@<TRIPOS>ATOM
      1 C1          21.8810    68.6880    13.4330 c6         1 YZ0       0.340900
      2 C1M         23.2450    70.4480    14.1730 c3         1 YZ0       0.121700
      3 C2          20.8020    68.3620    12.3860 c6         1 YZ0       0.134100
      4 C3          20.7910    66.8560    12.1750 c6         1 YZ0       0.112100
      5 C4          22.1230    66.4110    11.5840 c6         1 YZ0       0.082100
      6 C5          23.3010    67.0260    12.3740 c6         1 YZ0       0.131100
      7 C6          24.1830    67.8770    11.4760 c3         1 YZ0       0.113400
      8 O1          22.3970    69.9440    13.1630 os         1 YZ0      -0.404600
      9 O2          21.0490    69.0510    11.1860 oh         1 YZ0      -0.579800
     10 O3          19.7140    66.5460    11.3230 oh         1 YZ0      -0.607800
     11 O4          22.1270    64.9980    11.6010 oh         1 YZ0      -0.600800
     12 O5          22.8650    67.6970    13.5430 os         1 YZ0      -0.417600
     13 O6          25.2970    68.3240    12.2090 oh         1 YZ0      -0.587800
     14 H1          21.4020    68.6830    14.4230 h2         1 YZ0       0.062700
     15 H1M1        23.4830    71.4780    13.9120 h1         1 YZ0       0.036033
     16 H1M2        24.1760    69.8840    14.2470 h1         1 YZ0       0.036033
     17 H1M3        22.7540    70.4450    15.1530 h1         1 YZ0       0.036033
     18 H2          19.8340    68.6680    12.8070 h1         1 YZ0       0.058700
     19 HO2         20.4070    68.7410    10.5380 ho         1 YZ0       0.417000
     20 H3          20.6600    66.3720    13.1550 h1         1 YZ0       0.067700
     21 HO3         19.7920    65.6230    11.0600 ho         1 YZ0       0.427000
     22 H4          22.1630    66.7650    10.5460 h1         1 YZ0       0.048700
     23 HO4         22.7680    64.6840    10.9560 ho         1 YZ0       0.411000
     24 H5          23.9070    66.1990    12.7560 h1         1 YZ0       0.090700
     25 H62         23.6080    68.7080    11.0560 h1         1 YZ0       0.032700
     26 H61         24.4870    67.2440    10.6290 h1         1 YZ0       0.032700
     27 HO6         25.7170    69.0320    11.7140 ho         1 YZ0       0.406000
@<TRIPOS>BOND
     1     1     3 1   
     2     1     8 1   
     3     1    12 1   
     4     1    14 1   
     5     2     8 1   
     6     2    15 1   
     7     2    16 1   
     8     2    17 1   
     9     3     4 1   
    10     3     9 1   
    11     3    18 1   
    12     4     5 1   
    13     4    10 1   
    14     4    20 1   
    15     5     6 1   
    16     5    11 1   
    17     5    22 1   
    18     6     7 1   
    19     6    12 1   
    20     6    24 1   
    21     7    13 1   
    22     7    25 1   
    23     7    26 1   
    24     9    19 1   
    25    10    21 1   
    26    11    23 1   
    27    13    27 1   
@<TRIPOS>SUBSTRUCTURE
     1 YZ0         1 TEMP              0 ****  ****    0 ROOT
