@<TRIPOS>MOLECULE
YZ6
   67    68     1     0     0
SMALL
No Charge or Current Charge


@<TRIPOS>ATOM
      1 O4           0.2180    -2.8660    -0.5310 o          1 YZ6      -0.579100
      2 C11          0.0640    -1.8850     0.1880 c          1 YZ6       0.573100
      3 C07         -1.2990    -1.5020     0.8350 c3         1 YZ6       0.062300
      4 O6          -2.0710    -2.6750     1.2150 os         1 YZ6      -0.428000
      5 C25         -1.5200    -3.4500     2.2970 c3         1 YZ6       0.142900
      6 C06         -2.1680    -0.6820    -0.1580 c3         1 YZ6       0.149300
      7 O2          -1.4410     0.4680    -0.6370 oh         1 YZ6      -0.690000
      8 C05         -3.5340    -0.2090     0.4440 c3         1 YZ6       0.110300
      9 O3          -3.3200     0.6660     1.5760 oh         1 YZ6      -0.657000
     10 C04         -4.4130     0.5360    -0.6110 c3         1 YZ6       0.180500
     11 O1          -3.7910     1.7810    -0.9590 oh         1 YZ6      -0.708000
     12 C03         -5.8090     0.8510    -0.1280 c2         1 YZ6      -0.261200
     13 C02         -6.8850     1.0040    -0.9210 c2         1 YZ6      -0.193200
     14 C01         -8.3030     1.3160    -0.4520 c3         1 YZ6      -0.013800
     15 C10         -8.3170     2.6680     0.3050 c3         1 YZ6      -0.082767
     16 C09         -9.2450     1.4130    -1.6800 c3         1 YZ6      -0.082767
     17 C08         -8.8020     0.1850     0.4820 c3         1 YZ6      -0.082767
     18 N            1.1320    -1.0940     0.5600 ns         1 YZ6      -0.505900
     19 C12          2.5070    -1.2970     0.1050 c3         1 YZ6       0.102000
     20 C13          3.4590    -0.2280     0.6780 c3         1 YZ6      -0.087400
     21 C14          4.9390    -0.4300     0.2550 c3         1 YZ6      -0.031700
     22 C16          5.1330    -0.3890    -1.2430 cc         1 YZ6       0.125300
     23 C19          5.8220    -1.2280    -2.0740 cd         1 YZ6      -0.176000
     24 C18          5.6720    -0.7280    -3.3830 cd         1 YZ6      -0.183000
     25 C17          4.8970     0.3970    -3.2990 cc         1 YZ6       0.124900
     26 O5           4.5550     0.6200    -1.9840 os         1 YZ6      -0.239000
     27 C15          5.8740     0.5500     0.9670 ca         1 YZ6      -0.081300
     28 C24          6.9280     0.0660     1.7700 ca         1 YZ6      -0.097000
     29 C23          7.7940     0.9600     2.4240 ca         1 YZ6      -0.111000
     30 C22          7.6160     2.3450     2.2800 ca         1 YZ6      -0.106000
     31 C21          6.5730     2.8360     1.4790 ca         1 YZ6      -0.111000
     32 C20          5.7060     1.9440     0.8250 ca         1 YZ6      -0.097000
     33 H1          -1.0950    -0.8840     1.7200 h1         1 YZ6       0.040700
     34 H2          -2.1790    -4.2950     2.5330 h1         1 YZ6       0.034700
     35 H3          -0.5330    -3.8520     2.0340 h1         1 YZ6       0.034700
     36 H4          -1.4150    -2.8370     3.2010 h1         1 YZ6       0.034700
     37 H5          -2.3980    -1.3470    -1.0040 h1         1 YZ6       0.108700
     38 H6          -2.1500     1.1340    -0.8520 ho         1 YZ6       0.493000
     39 H7          -4.0870    -1.1050     0.7610 h1         1 YZ6       0.098700
     40 H8          -3.3080     1.5730     1.1950 ho         1 YZ6       0.436000
     41 H9          -4.4930    -0.1100    -1.4990 h1         1 YZ6       0.090700
     42 H10         -4.5010     2.3330    -1.3640 ho         1 YZ6       0.500000
     43 H11         -5.9040     0.9480     0.9550 ha         1 YZ6       0.181000
     44 H12         -6.7760     0.8990    -2.0030 ha         1 YZ6       0.165000
     45 H13         -7.9430     3.4760    -0.3360 hc         1 YZ6       0.035700
     46 H14         -9.3330     2.9290     0.6220 hc         1 YZ6       0.035700
     47 H15         -7.6860     2.6280     1.2000 hc         1 YZ6       0.035700
     48 H16         -9.2590     0.4680    -2.2380 hc         1 YZ6       0.035700
     49 H17        -10.2740     1.6360    -1.3690 hc         1 YZ6       0.035700
     50 H18         -8.9190     2.2060    -2.3630 hc         1 YZ6       0.035700
     51 H19         -8.1780     0.1080     1.3810 hc         1 YZ6       0.035700
     52 H20         -9.8340     0.3700     0.8050 hc         1 YZ6       0.035700
     53 H21         -8.7760    -0.7840    -0.0310 hc         1 YZ6       0.035700
     54 H22          0.9270    -0.2970     1.1520 hn         1 YZ6       0.307500
     55 H23          2.8390    -2.2950     0.4210 h1         1 YZ6       0.057700
     56 H24          2.5230    -1.2610    -0.9930 h1         1 YZ6       0.057700
     57 H25          3.1120     0.7630     0.3630 hc         1 YZ6       0.052200
     58 H26          3.4000    -0.2530     1.7730 hc         1 YZ6       0.052200
     59 H27          5.2060    -1.4450     0.5760 hc         1 YZ6       0.066700
     60 H28          6.3780    -2.1110    -1.7740 ha         1 YZ6       0.140000
     61 H29          6.0890    -1.1480    -4.2930 ha         1 YZ6       0.142000
     62 H30          4.5350     1.0900    -4.0460 h4         1 YZ6       0.052100
     63 H31          7.0790    -1.0050     1.8900 ha         1 YZ6       0.113500
     64 H32          8.6030     0.5770     3.0420 ha         1 YZ6       0.112500
     65 H33          8.2870     3.0360     2.7860 ha         1 YZ6       0.113000
     66 H34          6.4350     3.9090     1.3630 ha         1 YZ6       0.112500
     67 H35          4.9070     2.3390     0.2030 ha         1 YZ6       0.113500
@<TRIPOS>BOND
     1     1     2 2   
     2     2     3 1   
     3     2    18 1   
     4     3     4 1   
     5     3     6 1   
     6     3    33 1   
     7     4     5 1   
     8     5    34 1   
     9     5    35 1   
    10     5    36 1   
    11     6     7 1   
    12     6     8 1   
    13     6    37 1   
    14     7    38 1   
    15     8     9 1   
    16     8    10 1   
    17     8    39 1   
    18     9    40 1   
    19    10    11 1   
    20    10    12 1   
    21    10    41 1   
    22    11    42 1   
    23    12    13 2   
    24    12    43 1   
    25    13    14 1   
    26    13    44 1   
    27    14    15 1   
    28    14    16 1   
    29    14    17 1   
    30    15    45 1   
    31    15    46 1   
    32    15    47 1   
    33    16    48 1   
    34    16    49 1   
    35    16    50 1   
    36    17    51 1   
    37    17    52 1   
    38    17    53 1   
    39    18    19 1   
    40    18    54 1   
    41    19    20 1   
    42    19    55 1   
    43    19    56 1   
    44    20    21 1   
    45    20    57 1   
    46    20    58 1   
    47    21    22 1   
    48    21    27 1   
    49    21    59 1   
    50    22    23 2   
    51    22    26 1   
    52    23    24 1   
    53    23    60 1   
    54    24    25 2   
    55    24    61 1   
    56    25    26 1   
    57    25    62 1   
    58    27    28 ar  
    59    27    32 ar  
    60    28    29 ar  
    61    28    63 1   
    62    29    30 ar  
    63    29    64 1   
    64    30    31 ar  
    65    30    65 1   
    66    31    32 ar  
    67    31    66 1   
    68    32    67 1   
@<TRIPOS>SUBSTRUCTURE
     1 YZ6         1 TEMP              0 ****  ****    0 ROOT
