@<TRIPOS>MOLECULE
YZ6
   67    68     1     0     0
SMALL
abcg2


@<TRIPOS>ATOM
      1 O4           0.1270    -2.6860    -0.5630 o          1 YZ6      -0.579100
      2 C11          0.0240    -1.7610     0.2290 c          1 YZ6       0.573100
      3 C07         -1.3420    -1.3370     0.7770 c3         1 YZ6       0.062300
      4 O6          -2.0570    -2.4500     1.2290 os         1 YZ6      -0.428000
      5 C25         -1.5620    -2.9930     2.4300 c3         1 YZ6       0.142900
      6 C06         -2.1440    -0.6840    -0.3580 c3         1 YZ6       0.149300
      7 O2          -1.3550     0.2890    -1.0010 oh         1 YZ6      -0.690000
      8 C05         -3.5010    -0.1680     0.1330 c3         1 YZ6       0.110300
      9 O3          -3.3790     0.7610     1.1860 oh         1 YZ6      -0.657000
     10 C04         -4.3800     0.3860    -1.0080 c3         1 YZ6       0.180500
     11 O1          -3.9540     1.6580    -1.4330 oh         1 YZ6      -0.708000
     12 C03         -5.8300     0.3380    -0.6120 c2         1 YZ6      -0.261200
     13 C02         -6.7040     1.3330    -0.7120 c2         1 YZ6      -0.193200
     14 C01         -8.1590     1.3080    -0.3150 c3         1 YZ6      -0.013800
     15 C10         -8.3700     2.3750     0.7670 c3         1 YZ6      -0.082767
     16 C09         -8.9940     1.6680    -1.5500 c3         1 YZ6      -0.082767
     17 C08         -8.6040    -0.0500     0.2180 c3         1 YZ6      -0.082767
     18 N            1.0650    -1.0490     0.6710 ns         1 YZ6      -0.505900
     19 C12          2.4260    -1.2900     0.2420 c3         1 YZ6       0.102000
     20 C13          3.3270    -0.1540     0.6980 c3         1 YZ6      -0.087400
     21 C14          4.7990    -0.4120     0.3510 c3         1 YZ6      -0.031700
     22 C16          5.0280    -0.5350    -1.1180 cc         1 YZ6       0.125300
     23 C19          5.4850    -1.5510    -1.8910 cd         1 YZ6      -0.176000
     24 C18          5.4870    -1.0650    -3.2360 cd         1 YZ6      -0.183000
     25 C17          5.0300     0.2050    -3.1730 cc         1 YZ6       0.124900
     26 O5           4.7490     0.5350    -1.8930 os         1 YZ6      -0.239000
     27 C15          5.7330     0.6170     0.9600 ca         1 YZ6      -0.081300
     28 C24          6.8990     0.1940     1.5920 ca         1 YZ6      -0.097000
     29 C23          7.7860     1.1090     2.1430 ca         1 YZ6      -0.111000
     30 C22          7.5170     2.4690     2.0690 ca         1 YZ6      -0.106000
     31 C21          6.3560     2.9020     1.4410 ca         1 YZ6      -0.111000
     32 C20          5.4720     1.9840     0.8900 ca         1 YZ6      -0.097000
     33 H1          -1.2100    -0.6060     1.5900 h1         1 YZ6       0.040700
     34 H2          -2.2280    -3.8020     2.7260 h1         1 YZ6       0.034700
     35 H3          -0.5530    -3.4070     2.3200 h1         1 YZ6       0.034700
     36 H4          -1.5380    -2.2490     3.2330 h1         1 YZ6       0.034700
     37 H5          -2.3390    -1.4540    -1.1120 h1         1 YZ6       0.108700
     38 H6          -1.1670     1.0100    -0.3920 ho         1 YZ6       0.493000
     39 H7          -4.0230    -1.0320     0.5520 h1         1 YZ6       0.098700
     40 H8          -3.0310     1.5900     0.8410 ho         1 YZ6       0.436000
     41 H9          -4.2540    -0.2860    -1.8670 h1         1 YZ6       0.090700
     42 H10         -4.3540     2.3270    -0.8680 ho         1 YZ6       0.500000
     43 H11         -6.1480    -0.6240    -0.2220 ha         1 YZ6       0.181000
     44 H12         -6.3860     2.2900    -1.1230 ha         1 YZ6       0.165000
     45 H13         -8.0460     3.3600     0.4250 hc         1 YZ6       0.035700
     46 H14         -9.4260     2.4480     1.0380 hc         1 YZ6       0.035700
     47 H15         -7.8080     2.1310     1.6700 hc         1 YZ6       0.035700
     48 H16         -8.8800     0.9160    -2.3340 hc         1 YZ6       0.035700
     49 H17        -10.0550     1.7280    -1.2960 hc         1 YZ6       0.035700
     50 H18         -8.6980     2.6330    -1.9670 hc         1 YZ6       0.035700
     51 H19         -8.0470    -0.3370     1.1120 hc         1 YZ6       0.035700
     52 H20         -9.6620    -0.0200     0.4870 hc         1 YZ6       0.035700
     53 H21         -8.4740    -0.8370    -0.5270 hc         1 YZ6       0.035700
     54 H22          0.9140    -0.3540     1.3850 hn         1 YZ6       0.307500
     55 H23          2.7910    -2.2400     0.6500 h1         1 YZ6       0.057700
     56 H24          2.4500    -1.3840    -0.8450 h1         1 YZ6       0.057700
     57 H25          2.9820     0.7830     0.2550 hc         1 YZ6       0.052200
     58 H26          3.2490    -0.0370     1.7830 hc         1 YZ6       0.052200
     59 H27          5.0720    -1.3850     0.7720 hc         1 YZ6       0.066700
     60 H28          5.7850    -2.5270    -1.5460 ha         1 YZ6       0.140000
     61 H29          5.7860    -1.5950    -4.1260 ha         1 YZ6       0.142000
     62 H30          4.8560     0.9650    -3.9180 h4         1 YZ6       0.052100
     63 H31          7.1170    -0.8660     1.6550 ha         1 YZ6       0.113500
     64 H32          8.6850     0.7580     2.6320 ha         1 YZ6       0.112500
     65 H33          8.2050     3.1860     2.4980 ha         1 YZ6       0.113000
     66 H34          6.1360     3.9600     1.3790 ha         1 YZ6       0.112500
     67 H35          4.5740     2.3480     0.4080 ha         1 YZ6       0.113500
@<TRIPOS>BOND
     1     1     2 2   
     2     2     3 1   
     3     2    18 1   
     4     3     4 1   
     5     3     6 1   
     6     3    33 1   
     7     4     5 1   
     8     5    34 1   
     9     5    35 1   
    10     5    36 1   
    11     6     7 1   
    12     6     8 1   
    13     6    37 1   
    14     7    38 1   
    15     8     9 1   
    16     8    10 1   
    17     8    39 1   
    18     9    40 1   
    19    10    11 1   
    20    10    12 1   
    21    10    41 1   
    22    11    42 1   
    23    12    13 2   
    24    12    43 1   
    25    13    14 1   
    26    13    44 1   
    27    14    15 1   
    28    14    16 1   
    29    14    17 1   
    30    15    45 1   
    31    15    46 1   
    32    15    47 1   
    33    16    48 1   
    34    16    49 1   
    35    16    50 1   
    36    17    51 1   
    37    17    52 1   
    38    17    53 1   
    39    18    19 1   
    40    18    54 1   
    41    19    20 1   
    42    19    55 1   
    43    19    56 1   
    44    20    21 1   
    45    20    57 1   
    46    20    58 1   
    47    21    22 1   
    48    21    27 1   
    49    21    59 1   
    50    22    23 2   
    51    22    26 1   
    52    23    24 1   
    53    23    60 1   
    54    24    25 2   
    55    24    61 1   
    56    25    26 1   
    57    25    62 1   
    58    27    28 ar  
    59    27    32 ar  
    60    28    29 ar  
    61    28    63 1   
    62    29    30 ar  
    63    29    64 1   
    64    30    31 ar  
    65    30    65 1   
    66    31    32 ar  
    67    31    66 1   
    68    32    67 1   
@<TRIPOS>SUBSTRUCTURE
     1 YZ6         1 TEMP              0 ****  ****    0 ROOT
