@<TRIPOS>MOLECULE
YZ9
   27    28     1     0     0
SMALL
abcg2


@<TRIPOS>ATOM
      1 C3           0.9360    -0.1780     5.4690 c3         1 YZ9      -0.096100
      2 C11         -0.3050    -0.0280     4.6230 c3         1 YZ9       0.169600
      3 O1          -2.0140     0.1030     2.5740 o          1 YZ9      -0.509000
      4 O2           0.1080     0.0080     3.2460 os         1 YZ9      -0.415100
      5 C6          -1.7420     0.0050    -2.5080 ca         1 YZ9       0.003000
      6 C5          -1.2250     0.0510    -0.0710 cc         1 YZ9       0.017800
      7 C4           1.0030     0.1650    -3.0150 ca         1 YZ9      -0.258000
      8 O3           1.4200     0.2020    -0.7160 os         1 YZ9      -0.347200
      9 C2          -0.8410     0.0660    -1.4330 ca         1 YZ9      -0.228800
     10 C1           0.5240     0.1450    -1.7170 ca         1 YZ9       0.243100
     11 C7           1.1060     0.1900     0.6170 c          1 YZ9       0.693300
     12 C12         -0.8300     0.0750     2.3270 c          1 YZ9       0.624300
     13 O4           0.4650     0.1190    -5.3380 oh         1 YZ9      -0.518100
     14 O5           2.0350     0.2620     1.3740 o          1 YZ9      -0.450000
     15 C10         -1.2940     0.0230    -3.8030 ca         1 YZ9      -0.181000
     16 C9          -0.3130     0.1040     0.9370 cd         1 YZ9      -0.303400
     17 C8           0.0870     0.1040    -4.0600 ca         1 YZ9       0.211100
     18 H31          0.6470    -0.2040     6.5190 hc         1 YZ9       0.049033
     19 H32          1.4660    -1.1040     5.2450 hc         1 YZ9       0.049033
     20 H33          1.6200     0.6590     5.3310 hc         1 YZ9       0.049033
     21 H111        -0.9890    -0.8640     4.7800 h1         1 YZ9       0.047700
     22 H112        -0.8360     0.8930     4.8690 h1         1 YZ9       0.047700
     23 H6          -2.8040    -0.0570    -2.3050 ha         1 YZ9       0.127000
     24 H5          -2.2800    -0.0090     0.1660 ha         1 YZ9       0.214000
     25 H4           2.0680     0.2280    -3.2010 ha         1 YZ9       0.143000
     26 HO4          1.4250     0.1730    -5.4200 ho         1 YZ9       0.479000
     27 H10         -1.9880    -0.0250    -4.6310 ha         1 YZ9       0.141000
@<TRIPOS>BOND
     1     1     2 1   
     2     1    18 1   
     3     1    19 1   
     4     1    20 1   
     5     2     4 1   
     6     2    21 1   
     7     2    22 1   
     8     3    12 2   
     9     4    12 1   
    10     5     9 ar  
    11     5    15 ar  
    12     5    23 1   
    13     6     9 1   
    14     6    16 2   
    15     6    24 1   
    16     7    10 ar  
    17     7    17 ar  
    18     7    25 1   
    19     8    10 1   
    20     8    11 1   
    21     9    10 ar  
    22    11    14 2   
    23    11    16 1   
    24    12    16 1   
    25    13    17 1   
    26    13    26 1   
    27    15    17 ar  
    28    15    27 1   
@<TRIPOS>SUBSTRUCTURE
     1 YZ9         1 TEMP              0 ****  ****    0 ROOT
