@<TRIPOS>MOLECULE
YZ9
   27    28     1     0     0
SMALL
No Charge or Current Charge


@<TRIPOS>ATOM
      1 C3           0.9680    -0.0530     5.5420 c3         1 YZ9      -0.096100
      2 C11         -0.3000    -0.0560     4.6750 c3         1 YZ9       0.169600
      3 O1          -2.0340    -0.0410     2.5920 o          1 YZ9      -0.509000
      4 O2           0.1180    -0.0190     3.3000 os         1 YZ9      -0.415100
      5 C6          -1.7580     0.0750    -2.5350 ca         1 YZ9       0.003000
      6 C5          -1.3060     0.0300    -0.0930 cc         1 YZ9       0.017800
      7 C4           0.9980     0.1350    -3.0700 ca         1 YZ9      -0.258000
      8 O3           1.4390     0.0920    -0.7300 os         1 YZ9      -0.347200
      9 C2          -0.8360     0.0680    -1.4700 ca         1 YZ9      -0.228800
     10 C1           0.5340     0.0980    -1.7490 ca         1 YZ9       0.243100
     11 C7           1.1060     0.0570     0.5960 c          1 YZ9       0.693300
     12 C12         -0.8400    -0.0150     2.3220 c          1 YZ9       0.624300
     13 O4           0.5170     0.1770    -5.4150 oh         1 YZ9      -0.518100
     14 O5           1.9990     0.0550     1.4290 o          1 YZ9      -0.450000
     15 C10         -1.2950     0.1120    -3.8620 ca         1 YZ9      -0.181000
     16 C9          -0.3530     0.0240     0.9170 cd         1 YZ9      -0.303400
     17 C8           0.0800     0.1410    -4.1270 ca         1 YZ9       0.211100
     18 H31          0.7020    -0.0800     6.6050 hc         1 YZ9       0.049033
     19 H32          1.5900    -0.9280     5.3210 hc         1 YZ9       0.049033
     20 H33          1.5590     0.8530     5.3590 hc         1 YZ9       0.049033
     21 H111        -0.8840    -0.9630     4.8830 h1         1 YZ9       0.047700
     22 H112        -0.9150     0.8200     4.9220 h1         1 YZ9       0.047700
     23 H6          -2.8290     0.0510    -2.3390 ha         1 YZ9       0.127000
     24 H5          -2.3710     0.0060     0.1340 ha         1 YZ9       0.214000
     25 H4           2.0670     0.1580    -3.2590 ha         1 YZ9       0.143000
     26 HO4          1.4980     0.1940    -5.4060 ho         1 YZ9       0.479000
     27 H10         -2.0060     0.1170    -4.6840 ha         1 YZ9       0.141000
@<TRIPOS>BOND
     1     1     2 1   
     2     1    18 1   
     3     1    19 1   
     4     1    20 1   
     5     2     4 1   
     6     2    21 1   
     7     2    22 1   
     8     3    12 2   
     9     4    12 1   
    10     5     9 ar  
    11     5    15 ar  
    12     5    23 1   
    13     6     9 1   
    14     6    16 2   
    15     6    24 1   
    16     7    10 ar  
    17     7    17 ar  
    18     7    25 1   
    19     8    10 1   
    20     8    11 1   
    21     9    10 ar  
    22    11    14 2   
    23    11    16 1   
    24    12    16 1   
    25    13    17 1   
    26    13    26 1   
    27    15    17 ar  
    28    15    27 1   
@<TRIPOS>SUBSTRUCTURE
     1 YZ9         1 TEMP              0 ****  ****    0 ROOT
