@<TRIPOS>MOLECULE
YZE
   51    51     1     0     0
SMALL
No Charge or Current Charge


@<TRIPOS>ATOM
      1 C2           9.6620    -0.0430    -0.0120 c2         1 YZE      -0.389000
      2 C4           8.8040     0.9710     0.1770 c2         1 YZE      -0.153200
      3 C5           8.3840     1.9700    -0.8840 c3         1 YZE      -0.052200
      4 C6           6.8470     2.0740    -1.0650 c3         1 YZE      -0.025300
      5 C7           6.4690     3.1920    -2.0880 c          1 YZE       0.711000
      6 O8           6.6830     2.9980    -3.2780 o          1 YZE      -0.738500
      7 O9           5.9030     4.1920    -1.6680 o          1 YZE      -0.738500
      8 N10          6.2480     0.7770    -1.4640 ns         1 YZE      -0.470900
      9 C11          5.7130    -0.1470    -0.6020 c          1 YZE       0.654100
     10 N12          5.2770    -1.2720    -1.2560 ns         1 YZE      -0.469900
     11 C13          4.6260    -2.4410    -0.6140 c3         1 YZE      -0.036300
     12 C14          3.0780    -2.3650    -0.6840 c3         1 YZE      -0.061400
     13 C15          2.4600    -1.1630     0.0700 c3         1 YZE      -0.077400
     14 C16          0.9160    -1.1650     0.0440 c3         1 YZE      -0.094400
     15 C17          0.3040     0.0330     0.7950 c3         1 YZE       0.092000
     16 N18         -1.1590     0.0020     0.7530 ns         1 YZE      -0.488900
     17 C19         -1.9750     0.9260     1.3690 c          1 YZE       0.597700
     18 C20         -3.4720     0.7300     1.2160 ca         1 YZE      -0.119600
     19 C21         -4.3580     1.6490     1.8270 ca         1 YZE      -0.077000
     20 C22         -5.7500     1.4970     1.7060 ca         1 YZE      -0.095000
     21 C23         -6.2780     0.4250     0.9730 ca         1 YZE       0.207000
     22 I24         -8.4230     0.1910     0.7870 i          1 YZE      -0.338000
     23 C25         -5.4170    -0.4970     0.3610 ca         1 YZE      -0.095000
     24 C26         -4.0220    -0.3500     0.4790 ca         1 YZE      -0.077000
     25 O27         -1.5010     1.8580     2.0060 o          1 YZE      -0.603100
     26 C28          5.1580    -3.7710    -1.2350 c          1 YZE       0.708000
     27 O29          5.1060    -3.9140    -2.4500 o          1 YZE      -0.739000
     28 O30          5.6750    -4.5900    -0.4890 o          1 YZE      -0.739000
     29 O31          5.6280     0.0160     0.6050 o          1 YZE      -0.653100
     30 H2           9.9170    -0.7280     0.7970 ha         1 YZE       0.139000
     31 H2A         10.1350    -0.2220    -0.9780 ha         1 YZE       0.139000
     32 H4           8.3390     1.1280     1.1540 ha         1 YZE       0.161000
     33 H5           8.7680     2.9620    -0.6160 hc         1 YZE       0.044200
     34 H5A          8.8410     1.7160    -1.8490 hc         1 YZE       0.044200
     35 H6           6.4110     2.3730    -0.1030 h1         1 YZE       0.064700
     36 HN10         6.2470     0.5410    -2.4470 hn         1 YZE       0.268500
     37 HN12         5.4170    -1.3030    -2.2570 hn         1 YZE       0.263500
     38 H13          4.9170    -2.4580     0.4440 h1         1 YZE       0.069700
     39 H14          2.7640    -2.3320    -1.7350 hc         1 YZE       0.031200
     40 H15          2.8040    -1.1760     1.1110 hc         1 YZE       0.052700
     41 H16          0.5720    -1.1510    -0.9970 hc         1 YZE       0.030200
     42 H16A         0.5480    -2.0960     0.4940 hc         1 YZE       0.030200
     43 H17          0.6300     0.0170     1.8430 h1         1 YZE       0.059200
     44 H17A         0.6510     0.9700     0.3400 h1         1 YZE       0.059200
     45 HN18        -1.6090    -0.7450     0.2410 hn         1 YZE       0.310500
     46 H21         -3.9680     2.4890     2.4000 ha         1 YZE       0.132500
     47 H22         -6.4200     2.2090     2.1790 ha         1 YZE       0.123500
     48 H25         -5.8310    -1.3260    -0.2060 ha         1 YZE       0.123500
     49 H26         -3.3870    -1.0840    -0.0100 ha         1 YZE       0.132500
     50 H23          2.6670    -3.2900    -0.2630 hc         1 YZE       0.031200
     51 H24          2.8200    -0.2280    -0.3760 hc         1 YZE       0.052700
@<TRIPOS>BOND
     1     1     2 2   
     2     1    30 1   
     3     1    31 1   
     4     2     3 1   
     5     2    32 1   
     6     3     4 1   
     7     3    33 1   
     8     3    34 1   
     9     4     5 1   
    10     4     8 1   
    11     4    35 1   
    12     5     6 1   
    13     5     7 1   
    14     8     9 1   
    15     8    36 1   
    16     9    10 1   
    17     9    29 2   
    18    10    11 1   
    19    10    37 1   
    20    11    12 1   
    21    11    26 1   
    22    11    38 1   
    23    12    13 1   
    24    12    39 1   
    25    12    50 1   
    26    13    14 1   
    27    13    40 1   
    28    13    51 1   
    29    14    15 1   
    30    14    41 1   
    31    14    42 1   
    32    15    16 1   
    33    15    43 1   
    34    15    44 1   
    35    16    17 1   
    36    16    45 1   
    37    17    18 1   
    38    17    25 2   
    39    18    19 ar  
    40    18    24 ar  
    41    19    20 ar  
    42    19    46 1   
    43    20    21 ar  
    44    20    47 1   
    45    21    22 1   
    46    21    23 ar  
    47    23    24 ar  
    48    23    48 1   
    49    24    49 1   
    50    26    27 1   
    51    26    28 1   
@<TRIPOS>SUBSTRUCTURE
     1 YZE         1 TEMP              0 ****  ****    0 ROOT
