@<TRIPOS>MOLECULE
YZE
   51    51     1     0     0
SMALL
abcg2


@<TRIPOS>ATOM
      1 C2           8.8300     0.7040    -3.7180 c2         1 YZE      -0.389000
      2 C4           9.1840     0.8030    -2.4420 c2         1 YZE      -0.153200
      3 C5           8.6900     1.8440    -1.4910 c3         1 YZE      -0.052200
      4 C6           8.0510     1.2440    -0.2350 c3         1 YZE      -0.025300
      5 C7           7.6400     2.3820     0.7330 c          1 YZE       0.711000
      6 O8           6.4280     2.6260     0.8570 o          1 YZE      -0.738500
      7 O9           8.5910     2.9770     1.2830 o          1 YZE      -0.738500
      8 N10          6.9590     0.3840    -0.6240 ns         1 YZE      -0.470900
      9 C11          6.3160    -0.3550     0.3230 c          1 YZE       0.654100
     10 N12          5.0870    -0.8190    -0.0410 ns         1 YZE      -0.469900
     11 C13          4.4910    -1.9240     0.6750 c3         1 YZE      -0.036300
     12 C14          3.0080    -2.0290     0.3220 c3         1 YZE      -0.061400
     13 C15          2.1960    -0.7950     0.6950 c3         1 YZE      -0.077400
     14 C16          0.7130    -0.9700     0.3980 c3         1 YZE      -0.094400
     15 C17         -0.0960     0.2490     0.8090 c3         1 YZE       0.092000
     16 N18         -1.5040     0.0460     0.5290 ns         1 YZE      -0.488900
     17 C19         -2.4310     0.9760     0.7900 c          1 YZE       0.597700
     18 C20         -3.8450     0.6090     0.4650 ca         1 YZE      -0.119600
     19 C21         -4.8670     1.2100     1.1930 ca         1 YZE      -0.077000
     20 C22         -6.1950     0.9130     0.9320 ca         1 YZE      -0.095000
     21 C23         -6.5010     0.0190    -0.0850 ca         1 YZE       0.207000
     22 I24         -8.5120    -0.4320    -0.4950 i          1 YZE      -0.338000
     23 C25         -5.5000    -0.5760    -0.8380 ca         1 YZE      -0.095000
     24 C26         -4.1740    -0.2790    -0.5560 ca         1 YZE      -0.077000
     25 O27         -2.1590     2.0680     1.2740 o          1 YZE      -0.603100
     26 C28          5.2090    -3.2760     0.4330 c          1 YZE       0.708000
     27 O29          6.0970    -3.3120    -0.4380 o          1 YZE      -0.739000
     28 O30          4.8130    -4.2230     1.1420 o          1 YZE      -0.739000
     29 O31          6.8110    -0.5830     1.4230 o          1 YZE      -0.653100
     30 H2           9.2310    -0.0690    -4.3620 ha         1 YZE       0.139000
     31 H2A          8.1250     1.3940    -4.1680 ha         1 YZE       0.139000
     32 H4           9.8900     0.0850    -2.0320 ha         1 YZE       0.161000
     33 H5           9.5260     2.4680    -1.1650 hc         1 YZE       0.044200
     34 H5A          7.9780     2.5060    -1.9970 hc         1 YZE       0.044200
     35 H6           8.8090     0.6320     0.2640 h1         1 YZE       0.064700
     36 HN10         6.4010     0.7170    -1.3950 hn         1 YZE       0.268500
     37 HN12         4.8880    -0.8080    -1.0300 hn         1 YZE       0.263500
     38 H13          4.5580    -1.7040     1.7440 h1         1 YZE       0.069700
     39 H14          2.8960    -2.2330    -0.7500 hc         1 YZE       0.031200
     40 H15          2.3300    -0.5850     1.7620 hc         1 YZE       0.052700
     41 H16          0.5710    -1.1620    -0.6700 hc         1 YZE       0.030200
     42 H16A         0.3360    -1.8510     0.9270 hc         1 YZE       0.030200
     43 H17          0.0490     0.4480     1.8760 h1         1 YZE       0.059200
     44 H17A         0.2610     1.1320     0.2720 h1         1 YZE       0.059200
     45 HN18        -1.7960    -0.8800     0.2620 hn         1 YZE       0.310500
     46 H21         -4.6310     1.9120     1.9820 ha         1 YZE       0.132500
     47 H22         -6.9720     1.3810     1.5210 ha         1 YZE       0.123500
     48 H25         -5.7320    -1.2590    -1.6430 ha         1 YZE       0.123500
     49 H26         -3.4070    -0.7360    -1.1680 ha         1 YZE       0.132500
     50 H23          2.6030    -2.9000     0.8410 hc         1 YZE       0.031200
     51 H24          2.5770     0.0800     0.1610 hc         1 YZE       0.052700
@<TRIPOS>BOND
     1     1     2 2   
     2     1    30 1   
     3     1    31 1   
     4     2     3 1   
     5     2    32 1   
     6     3     4 1   
     7     3    33 1   
     8     3    34 1   
     9     4     5 1   
    10     4     8 1   
    11     4    35 1   
    12     5     6 1   
    13     5     7 1   
    14     8     9 1   
    15     8    36 1   
    16     9    10 1   
    17     9    29 2   
    18    10    11 1   
    19    10    37 1   
    20    11    12 1   
    21    11    26 1   
    22    11    38 1   
    23    12    13 1   
    24    12    39 1   
    25    12    50 1   
    26    13    14 1   
    27    13    40 1   
    28    13    51 1   
    29    14    15 1   
    30    14    41 1   
    31    14    42 1   
    32    15    16 1   
    33    15    43 1   
    34    15    44 1   
    35    16    17 1   
    36    16    45 1   
    37    17    18 1   
    38    17    25 2   
    39    18    19 ar  
    40    18    24 ar  
    41    19    20 ar  
    42    19    46 1   
    43    20    21 ar  
    44    20    47 1   
    45    21    22 1   
    46    21    23 ar  
    47    23    24 ar  
    48    23    48 1   
    49    24    49 1   
    50    26    27 1   
    51    26    28 1   
@<TRIPOS>SUBSTRUCTURE
     1 YZE         1 TEMP              0 ****  ****    0 ROOT
