@<TRIPOS>MOLECULE
YZI
   55    57     1     0     0
SMALL
abcg2


@<TRIPOS>ATOM
      1 C01         -2.8610    13.4170   -10.3800 c3         1 YZI       0.157100
      2 C03         -0.5410    12.9590    -9.8720 c6         1 YZI       0.155800
      3 C04         -0.1420    14.3990    -9.5070 c6         1 YZI       0.069500
      4 C06         -0.1920    16.5970   -10.5040 c          1 YZI       0.655100
      5 C08         -1.8150    17.1510   -12.2730 c6         1 YZI       0.103000
      6 C09         -1.6780    17.5750   -13.7330 c6         1 YZI      -0.153700
      7 C10         -2.9840    17.3610   -14.4690 c          1 YZI       0.608100
      8 C13         -3.8360    16.4170   -16.6040 ca         1 YZI       0.011000
      9 C14         -5.2010    16.6110   -16.3930 ca         1 YZI      -0.176000
     10 C15         -6.0870    16.2460   -17.3860 ca         1 YZI       0.210000
     11 C17         -5.6750    15.6930   -18.5840 ca         1 YZI       0.036000
     12 C19         -4.3170    15.5040   -18.7910 ca         1 YZI      -0.047000
     13 C20         -3.4090    15.8640   -17.8150 ca         1 YZI      -0.182000
     14 C21         -1.2660    19.0490   -13.7980 c6         1 YZI      -0.069400
     15 C22         -0.0050    19.3010   -12.9780 c6         1 YZI      -0.072700
     16 C23          0.3530    20.7840   -12.9970 c3         1 YZI       0.156800
     17 C25         -0.1820    18.7850   -11.5520 c6         1 YZI       0.095000
     18 C27         -0.0960    14.5580   -11.9330 c6         1 YZI       0.069500
     19 C28         -1.1500    13.4550   -12.1220 c6         1 YZI       0.155800
     20 F16         -7.3910    16.4340   -17.1770 f          1 YZI      -0.157000
     21 N02         -1.5990    12.8890   -10.8550 n3         1 YZI      -0.715600
     22 N05         -0.3140    15.2490   -10.6750 n          1 YZI      -0.419800
     23 N07         -0.5650    17.3860   -11.5730 n          1 YZI      -0.417800
     24 N12         -2.8540    16.7340   -15.6690 ns         1 YZI      -0.144000
     25 N24          1.6180    21.0520   -12.3280 n8         1 YZI      -0.998200
     26 O11         -4.0490    17.7400   -14.0160 o          1 YZI      -0.568100
     27 O26          0.2330    17.0740    -9.4590 o          1 YZI      -0.620100
     28 CL1         -6.8360    15.2510   -19.7760 cl         1 YZI      -0.167000
     29 H1          -3.1460    12.8990    -9.4620 h1         1 YZI       0.034033
     30 H2          -2.8670    14.4950   -10.1710 h1         1 YZI       0.034033
     31 H3          -3.6420    13.2220   -11.1170 h1         1 YZI       0.034033
     32 H4           0.3260    12.4170   -10.2620 h1         1 YZI       0.054200
     33 H5          -0.8440    12.4330    -8.9640 h1         1 YZI       0.054200
     34 H6           0.8900    14.4120    -9.1370 h1         1 YZI       0.051700
     35 H7          -0.7770    14.7730    -8.7020 h1         1 YZI       0.051700
     36 H8          -2.6150    17.7370   -11.8020 h1         1 YZI       0.060200
     37 H9          -2.1070    16.1060   -12.1960 h1         1 YZI       0.060200
     38 H10         -0.8860    16.9720   -14.1900 hc         1 YZI       0.061700
     39 H11         -5.5840    17.0340   -15.4780 ha         1 YZI       0.170000
     40 H12         -3.9680    15.0750   -19.7210 ha         1 YZI       0.132000
     41 H13         -2.3520    15.7110   -17.9990 ha         1 YZI       0.118000
     42 H14         -1.1030    19.3490   -14.8360 hc         1 YZI       0.053700
     43 H15         -2.0840    19.6660   -13.4110 hc         1 YZI       0.053700
     44 H16          0.8240    18.7470   -13.4330 hc         1 YZI       0.070700
     45 H17          0.4510    21.0950   -14.0390 h1         1 YZI       0.030200
     46 H18         -0.4920    21.3570   -12.5850 h1         1 YZI       0.030200
     47 H19          0.7500    18.8860   -10.9990 h1         1 YZI       0.056200
     48 H20         -0.9390    19.3930   -11.0330 h1         1 YZI       0.056200
     49 H21         -0.1050    15.2530   -12.7680 h1         1 YZI       0.051700
     50 H22          0.9070    14.1160   -11.9200 h1         1 YZI       0.051700
     51 H23         -2.0170    13.8420   -12.6610 h1         1 YZI       0.054200
     52 H24         -0.7160    12.6730   -12.7530 h1         1 YZI       0.054200
     53 H26         -1.9130    16.4850   -15.9380 hn         1 YZI       0.155000
     54 H27          1.9190    21.9920   -12.5500 hn         1 YZI       0.396500
     55 H28          1.4890    21.0470   -11.3240 hn         1 YZI       0.396500
@<TRIPOS>BOND
     1     1    21 1   
     2     1    29 1   
     3     1    30 1   
     4     1    31 1   
     5     2     3 1   
     6     2    21 1   
     7     2    32 1   
     8     2    33 1   
     9     3    22 1   
    10     3    34 1   
    11     3    35 1   
    12     4    22 1   
    13     4    23 1   
    14     4    27 2   
    15     5     6 1   
    16     5    23 1   
    17     5    36 1   
    18     5    37 1   
    19     6     7 1   
    20     6    14 1   
    21     6    38 1   
    22     7    24 1   
    23     7    26 2   
    24     8     9 ar  
    25     8    13 ar  
    26     8    24 1   
    27     9    10 ar  
    28     9    39 1   
    29    10    11 ar  
    30    10    20 1   
    31    11    12 ar  
    32    11    28 1   
    33    12    13 ar  
    34    12    40 1   
    35    13    41 1   
    36    14    15 1   
    37    14    42 1   
    38    14    43 1   
    39    15    16 1   
    40    15    17 1   
    41    15    44 1   
    42    16    25 1   
    43    16    45 1   
    44    16    46 1   
    45    17    23 1   
    46    17    47 1   
    47    17    48 1   
    48    18    19 1   
    49    18    22 1   
    50    18    49 1   
    51    18    50 1   
    52    19    21 1   
    53    19    51 1   
    54    19    52 1   
    55    24    53 1   
    56    25    54 1   
    57    25    55 1   
@<TRIPOS>SUBSTRUCTURE
     1 YZI         1 TEMP              0 ****  ****    0 ROOT
