@<TRIPOS>MOLECULE
YZI
   55    57     1     0     0
SMALL
No Charge or Current Charge


@<TRIPOS>ATOM
      1 C01         -2.1830    11.9670   -10.6490 c3         1 YZI       0.157100
      2 C03         -0.2960    12.9870    -9.3900 c6         1 YZI       0.155800
      3 C04         -0.8220    14.4490    -9.2890 c6         1 YZI       0.069500
      4 C06         -0.5280    16.6780   -10.4570 c          1 YZI       0.655100
      5 C08         -1.9620    17.4310   -12.3730 c6         1 YZI       0.103000
      6 C09         -1.8360    18.0010   -13.8020 c6         1 YZI      -0.153700
      7 C10         -3.1570    17.9130   -14.5910 c          1 YZI       0.608100
      8 C13         -4.1150    16.7190   -16.6580 ca         1 YZI       0.011000
      9 C14         -5.4350    17.2210   -16.6480 ca         1 YZI      -0.176000
     10 C15         -6.3520    16.8220   -17.6350 ca         1 YZI       0.210000
     11 C17         -5.9680    15.9190   -18.6440 ca         1 YZI       0.036000
     12 C19         -4.6570    15.4170   -18.6600 ca         1 YZI      -0.047000
     13 C20         -3.7390    15.8160   -17.6710 ca         1 YZI      -0.182000
     14 C21         -1.1810    19.4010   -13.8460 c6         1 YZI      -0.069400
     15 C22          0.1670    19.3820   -13.0870 c6         1 YZI      -0.072700
     16 C23          0.8200    20.7950   -13.0810 c3         1 YZI       0.156800
     17 C25         -0.0250    18.8100   -11.6520 c6         1 YZI       0.095000
     18 C27         -0.8270    14.5210   -11.8250 c6         1 YZI       0.069500
     19 C28         -0.2740    13.0670   -11.8080 c6         1 YZI       0.155800
     20 F16         -7.6110    17.3150   -17.6060 f          1 YZI      -0.157000
     21 N02         -0.7360    12.2910   -10.6270 n3         1 YZI      -0.715600
     22 N05         -0.6650    15.2700   -10.5350 n          1 YZI      -0.419800
     23 N07         -0.6730    17.4650   -11.6210 n          1 YZI      -0.417800
     24 N12         -3.1290    17.0720   -15.6970 ns         1 YZI      -0.144000
     25 N24          2.1800    20.8290   -12.5080 n8         1 YZI      -0.998200
     26 O11         -4.1410    18.5510   -14.2370 o          1 YZI      -0.568100
     27 O26         -0.2310    17.2090    -9.3950 o          1 YZI      -0.620100
     28 Cl1         -7.1100    15.4110   -19.8880 cl         1 YZI      -0.167000
     29 H1          -2.4500    11.3380    -9.7890 h1         1 YZI       0.034033
     30 H2          -2.8020    12.8730   -10.6120 h1         1 YZI       0.034033
     31 H3          -2.4410    11.4140   -11.5620 h1         1 YZI       0.034033
     32 H4           0.8030    13.0190    -9.3610 h1         1 YZI       0.054200
     33 H5          -0.6130    12.4280    -8.4960 h1         1 YZI       0.054200
     34 H6          -0.3080    14.9340    -8.4480 h1         1 YZI       0.051700
     35 H7          -1.8900    14.4230    -9.0330 h1         1 YZI       0.051700
     36 H8          -2.6930    18.0380   -11.8170 h1         1 YZI       0.060200
     37 H9          -2.3840    16.4230   -12.4190 h1         1 YZI       0.060200
     38 H10         -1.1380    17.3300   -14.3230 hc         1 YZI       0.061700
     39 H11         -5.7760    17.9180   -15.8910 ha         1 YZI       0.170000
     40 H12         -4.3530    14.7190   -19.4360 ha         1 YZI       0.132000
     41 H13         -2.7270    15.4180   -17.6970 ha         1 YZI       0.118000
     42 H14         -1.0250    19.7130   -14.8890 hc         1 YZI       0.053700
     43 H15         -1.8560    20.1420   -13.3930 hc         1 YZI       0.053700
     44 H16          0.8590    18.7220   -13.6290 hc         1 YZI       0.070700
     45 H17          0.8810    21.1570   -14.1170 h1         1 YZI       0.030200
     46 H18          0.1810    21.4880   -12.5160 h1         1 YZI       0.030200
     47 H19          0.9570    18.7400   -11.1630 h1         1 YZI       0.056200
     48 H20         -0.6340    19.5090   -11.0600 h1         1 YZI       0.056200
     49 H21         -1.8970    14.4620   -12.0630 h1         1 YZI       0.051700
     50 H22         -0.3350    15.0690   -12.6400 h1         1 YZI       0.051700
     51 H23         -0.5640    12.5610   -12.7420 h1         1 YZI       0.054200
     52 H24          0.8250    13.1180   -11.8100 h1         1 YZI       0.054200
     53 H26         -2.2350    16.6230   -15.8500 hn         1 YZI       0.155000
     54 H27          2.5300    21.7950   -12.5350 hn         1 YZI       0.396500
     55 H28          2.1280    20.6220   -11.5040 hn         1 YZI       0.396500
@<TRIPOS>BOND
     1     1    21 1   
     2     1    29 1   
     3     1    30 1   
     4     1    31 1   
     5     2     3 1   
     6     2    21 1   
     7     2    32 1   
     8     2    33 1   
     9     3    22 1   
    10     3    34 1   
    11     3    35 1   
    12     4    22 1   
    13     4    23 1   
    14     4    27 2   
    15     5     6 1   
    16     5    23 1   
    17     5    36 1   
    18     5    37 1   
    19     6     7 1   
    20     6    14 1   
    21     6    38 1   
    22     7    24 1   
    23     7    26 2   
    24     8     9 ar  
    25     8    13 ar  
    26     8    24 1   
    27     9    10 ar  
    28     9    39 1   
    29    10    11 ar  
    30    10    20 1   
    31    11    12 ar  
    32    11    28 1   
    33    12    13 ar  
    34    12    40 1   
    35    13    41 1   
    36    14    15 1   
    37    14    42 1   
    38    14    43 1   
    39    15    16 1   
    40    15    17 1   
    41    15    44 1   
    42    16    25 1   
    43    16    45 1   
    44    16    46 1   
    45    17    23 1   
    46    17    47 1   
    47    17    48 1   
    48    18    19 1   
    49    18    22 1   
    50    18    49 1   
    51    18    50 1   
    52    19    21 1   
    53    19    51 1   
    54    19    52 1   
    55    24    53 1   
    56    25    54 1   
    57    25    55 1   
@<TRIPOS>SUBSTRUCTURE
     1 YZI         1 TEMP              0 ****  ****    0 ROOT
