@<TRIPOS>MOLECULE
YZK
   21    22     1     0     0
SMALL
No Charge or Current Charge


@<TRIPOS>ATOM
      1 C10         24.4430   -45.6960    14.4410 ca         1 YZK       0.337900
      2 C02         20.2060   -47.1830    12.0070 cc         1 YZK       0.420800
      3 N03         19.0850   -46.8700    11.3720 nd         1 YZK      -0.672000
      4 C04         19.0790   -45.4860    11.2620 cd         1 YZK       0.237900
      5 C05         20.1990   -44.9370    11.8380 cc         1 YZK      -0.218000
      6 N06         20.9050   -46.0260    12.2810 na         1 YZK      -0.083300
      7 C07         22.1090   -45.9440    12.9840 ca         1 YZK      -0.057200
      8 C08         23.2410   -46.6760    12.5750 ca         1 YZK      -0.071000
      9 C09         24.4240   -46.5470    13.3230 ca         1 YZK      -0.154000
     10 N11         23.3650   -44.9820    14.8390 nb         1 YZK      -0.653000
     11 C12         22.2240   -45.1070    14.1160 ca         1 YZK       0.340900
     12 H1          25.3490   -45.5810    15.0340 h4         1 YZK       0.026100
     13 H2          19.7430   -49.2480    12.4080 hc         1 YZK       0.055700
     14 H3          21.3360   -48.9840    11.6780 hc         1 YZK       0.055700
     15 H4          21.0640   -48.5960    13.3910 hc         1 YZK       0.055700
     16 H5          18.2620   -44.9610    10.7810 h4         1 YZK       0.040100
     17 H6          20.5240   -43.9100    11.9450 h4         1 YZK       0.161000
     18 H7          23.2110   -47.3200    11.6990 ha         1 YZK       0.134000
     19 H8          25.3200   -47.0940    13.0420 ha         1 YZK       0.131000
     20 H9          21.3720   -44.5210    14.4610 h4         1 YZK       0.034100
     21 C01         20.6110   -48.5790    12.3930 c3         1 YZK      -0.122400
@<TRIPOS>BOND
     1     1     9 ar  
     2     1    10 ar  
     3     1    12 1   
     4     2     3 2   
     5     2     6 1   
     6     2    21 1   
     7     3     4 1   
     8     4     5 2   
     9     4    16 1   
    10     5     6 1   
    11     5    17 1   
    12     6     7 1   
    13     7     8 ar  
    14     7    11 ar  
    15     8     9 ar  
    16     8    18 1   
    17     9    19 1   
    18    10    11 ar  
    19    11    20 1   
    20    13    21 1   
    21    14    21 1   
    22    15    21 1   
@<TRIPOS>SUBSTRUCTURE
     1 YZK         1 TEMP              0 ****  ****    0 ROOT
