@<TRIPOS>MOLECULE
YZK
   21    22     1     0     0
SMALL
abcg2


@<TRIPOS>ATOM
      1 C10         24.4230   -45.7080    14.4150 ca         1 YZK       0.337900
      2 C02         20.1830   -47.1630    12.0290 cc         1 YZK       0.420800
      3 N03         19.0790   -46.8570    11.4010 nd         1 YZK      -0.672000
      4 C04         19.0820   -45.4960    11.2560 cd         1 YZK       0.237900
      5 C05         20.2030   -44.9650    11.8100 cc         1 YZK      -0.218000
      6 N06         20.9100   -46.0390    12.2990 na         1 YZK      -0.083300
      7 C07         22.1340   -45.9640    12.9940 ca         1 YZK      -0.057200
      8 C08         23.2580   -46.6500    12.5600 ca         1 YZK      -0.071000
      9 C09         24.4250   -46.5260    13.2950 ca         1 YZK      -0.154000
     10 N11         23.3510   -45.0410    14.8260 nb         1 YZK      -0.653000
     11 C12         22.2300   -45.1740    14.1350 ca         1 YZK       0.340900
     12 H1          25.3260   -45.5860    15.0040 h4         1 YZK       0.026100
     13 H2          19.7590   -49.2080    12.3090 hc         1 YZK       0.055700
     14 H3          21.4240   -48.9080    11.8250 hc         1 YZK       0.055700
     15 H4          20.9190   -48.5670    13.4760 hc         1 YZK       0.055700
     16 H5          18.2790   -44.9740    10.7600 h4         1 YZK       0.040100
     17 H6          20.5710   -43.9560    11.8880 h4         1 YZK       0.161000
     18 H7          23.2270   -47.2560    11.6640 ha         1 YZK       0.134000
     19 H8          25.3260   -47.0430    12.9980 ha         1 YZK       0.131000
     20 H9          21.3600   -44.6350    14.4940 h4         1 YZK       0.034100
     21 C01         20.6010   -48.5310    12.4330 c3         1 YZK      -0.122400
@<TRIPOS>BOND
     1     1     9 ar  
     2     1    10 ar  
     3     1    12 1   
     4     2     3 2   
     5     2     6 1   
     6     2    21 1   
     7     3     4 1   
     8     4     5 2   
     9     4    16 1   
    10     5     6 1   
    11     5    17 1   
    12     6     7 1   
    13     7     8 ar  
    14     7    11 ar  
    15     8     9 ar  
    16     8    18 1   
    17     9    19 1   
    18    10    11 ar  
    19    11    20 1   
    20    13    21 1   
    21    14    21 1   
    22    15    21 1   
@<TRIPOS>SUBSTRUCTURE
     1 YZK         1 TEMP              0 ****  ****    0 ROOT
