@<TRIPOS>MOLECULE
YZM
   20    20     1     0     0
SMALL
No Charge or Current Charge


@<TRIPOS>ATOM
      1 N1           3.4530     1.3700     0.0240 nt         1 YZM      -0.632000
      2 C1           2.8360     0.1790     0.0090 c          1 YZM       0.664100
      3 O1           3.4680    -0.8580    -0.0050 o          1 YZM      -0.574100
      4 N2           1.4810     0.2810     0.0120 ns         1 YZM      -0.494500
      5 C2           0.5220    -0.7010    -0.0010 c          1 YZM       0.629700
      6 O2           0.8050    -1.8910    -0.0170 o          1 YZM      -0.521100
      7 C3          -0.9220    -0.2300     0.0070 ca         1 YZM      -0.161600
      8 C4          -1.9620    -1.1890    -0.0050 ca         1 YZM      -0.071000
      9 C5          -3.3100    -0.7920     0.0010 ca         1 YZM      -0.118500
     10 C6          -3.6440     0.5700     0.0200 ca         1 YZM      -0.086000
     11 C7          -2.6260     1.5360     0.0320 ca         1 YZM      -0.118500
     12 C8          -1.2750     1.1440     0.0260 ca         1 YZM      -0.071000
     13 H11N         4.4620     1.3930     0.0240 hn         1 YZM       0.321000
     14 H2           2.9260     2.2300     0.0360 hn         1 YZM       0.321000
     15 H21N         1.1250     1.2200     0.0240 hn         1 YZM       0.311500
     16 H41         -1.7310    -2.2530    -0.0190 ha         1 YZM       0.123000
     17 H51         -4.0970    -1.5430    -0.0080 ha         1 YZM       0.119000
     18 H61         -4.6870     0.8770     0.0250 ha         1 YZM       0.117000
     19 H71         -2.8830     2.5930     0.0460 ha         1 YZM       0.119000
     20 H81         -0.5200     1.9260     0.0350 ha         1 YZM       0.123000
@<TRIPOS>BOND
     1     1     2 1   
     2     1    13 1   
     3     1    14 1   
     4     2     3 2   
     5     2     4 1   
     6     4     5 1   
     7     4    15 1   
     8     5     6 2   
     9     5     7 1   
    10     7     8 ar  
    11     7    12 ar  
    12     8     9 ar  
    13     8    16 1   
    14     9    10 ar  
    15     9    17 1   
    16    10    11 ar  
    17    10    18 1   
    18    11    12 ar  
    19    11    19 1   
    20    12    20 1   
@<TRIPOS>SUBSTRUCTURE
     1 YZM         1 TEMP              0 ****  ****    0 ROOT
