@<TRIPOS>MOLECULE
YZM
   20    20     1     0     0
SMALL
abcg2


@<TRIPOS>ATOM
      1 N1           3.4790     1.2700     0.3790 nt         1 YZM      -0.632000
      2 C1           2.8070     0.2110    -0.1050 c          1 YZM       0.664100
      3 O1           3.3350    -0.7440    -0.6380 o          1 YZM      -0.574100
      4 N2           1.4230     0.3310     0.0610 ns         1 YZM      -0.494500
      5 C2           0.4870    -0.6370    -0.2060 c          1 YZM       0.629700
      6 O2           0.7580    -1.7830    -0.4870 o          1 YZM      -0.521100
      7 C3          -0.9310    -0.1790    -0.1030 ca         1 YZM      -0.161600
      8 C4          -1.9020    -1.1330     0.1990 ca         1 YZM      -0.071000
      9 C5          -3.2370    -0.7700     0.2830 ca         1 YZM      -0.118500
     10 C6          -3.6170     0.5450     0.0440 ca         1 YZM      -0.086000
     11 C7          -2.6580     1.4960    -0.2760 ca         1 YZM      -0.118500
     12 C8          -1.3190     1.1380    -0.3450 ca         1 YZM      -0.071000
     13 H11N         4.4790     1.3010     0.2750 hn         1 YZM       0.321000
     14 H2           3.0370     2.0550     0.8240 hn         1 YZM       0.321000
     15 H21N         1.0810     1.1980     0.4470 hn         1 YZM       0.311500
     16 H41         -1.6120    -2.1590     0.3800 ha         1 YZM       0.123000
     17 H51         -3.9820    -1.5140     0.5310 ha         1 YZM       0.119000
     18 H61         -4.6610     0.8260     0.1010 ha         1 YZM       0.117000
     19 H71         -2.9500     2.5170    -0.4790 ha         1 YZM       0.119000
     20 H81         -0.5940     1.8940    -0.6190 ha         1 YZM       0.123000
@<TRIPOS>BOND
     1     1     2 1   
     2     1    13 1   
     3     1    14 1   
     4     2     3 2   
     5     2     4 1   
     6     4     5 1   
     7     4    15 1   
     8     5     6 2   
     9     5     7 1   
    10     7     8 ar  
    11     7    12 ar  
    12     8     9 ar  
    13     8    16 1   
    14     9    10 ar  
    15     9    17 1   
    16    10    11 ar  
    17    10    18 1   
    18    11    12 ar  
    19    11    19 1   
    20    12    20 1   
@<TRIPOS>SUBSTRUCTURE
     1 YZM         1 TEMP              0 ****  ****    0 ROOT
