@<TRIPOS>MOLECULE
YZT
   26    26     1     0     0
SMALL
abcg2


@<TRIPOS>ATOM
      1 C1           3.3260    -4.0520    -4.1080 c6         1 YZT       0.405300
      2 C2           4.3760    -3.6670    -5.1420 c6         1 YZT       0.146300
      3 C3           5.7610    -3.8970    -4.5480 c6         1 YZT       0.124300
      4 C4           5.9100    -3.1830    -3.2110 c6         1 YZT       0.105300
      5 C5           4.7600    -3.6160    -2.2900 c6         1 YZT       0.199300
      6 C6           4.8030    -2.9180    -0.9480 c3         1 YZT      -0.350400
      7 O1           2.0760    -3.7390    -4.5960 oh         1 YZT      -0.699000
      8 O1S6         4.0440    -2.9540     1.5430 o          1 YZT      -0.691200
      9 O2           4.1700    -4.4430    -6.2930 oh         1 YZT      -0.712000
     10 O2S6         3.7190    -5.0040     0.2130 o          1 YZT      -0.691200
     11 O3           6.7020    -3.4540    -5.4960 oh         1 YZT      -0.739000
     12 O3S6         2.2740    -3.0440    -0.1620 o          1 YZT      -0.691200
     13 O4           7.1720    -3.5360    -2.6920 oh         1 YZT      -0.733000
     14 O5           3.5380    -3.3160    -2.9280 os         1 YZT      -0.459000
     15 S6           3.5980    -3.5320     0.2600 s6         1 YZT       1.324600
     16 H1           3.4190    -5.1310    -3.8840 h2         1 YZT       0.028700
     17 H1O          1.4080    -4.1980    -4.0750 ho         1 YZT       0.524000
     18 H2           4.2610    -2.5910    -5.3560 h1         1 YZT       0.060700
     19 H2O          4.8910    -4.2640    -6.9060 ho         1 YZT       0.508000
     20 H3           5.8740    -4.9780    -4.3640 h1         1 YZT       0.049700
     21 H3O          7.5770    -3.7260    -5.2010 ho         1 YZT       0.515000
     22 H4           5.8360    -2.0980    -3.3750 h1         1 YZT       0.049700
     23 H4O          7.4870    -2.8290    -2.1210 ho         1 YZT       0.511000
     24 H5           4.8480    -4.7020    -2.1250 h1         1 YZT       0.064700
     25 H61          5.7840    -3.0760    -0.4960 h1         1 YZT       0.074700
     26 H62          4.6540    -1.8410    -1.0590 h1         1 YZT       0.074700
@<TRIPOS>BOND
     1     1     2 1   
     2     1     7 1   
     3     1    14 1   
     4     1    16 1   
     5     2     3 1   
     6     2     9 1   
     7     2    18 1   
     8     3     4 1   
     9     3    11 1   
    10     3    20 1   
    11     4     5 1   
    12     4    13 1   
    13     4    22 1   
    14     5     6 1   
    15     5    14 1   
    16     5    24 1   
    17     6    15 1   
    18     6    25 1   
    19     6    26 1   
    20     7    17 1   
    21     8    15 1   
    22     9    19 1   
    23    10    15 1   
    24    11    21 1   
    25    12    15 1   
    26    13    23 1   
@<TRIPOS>SUBSTRUCTURE
     1 YZT         1 TEMP              0 ****  ****    0 ROOT
