@<TRIPOS>MOLECULE
YZT
   26    26     1     0     0
SMALL
No Charge or Current Charge


@<TRIPOS>ATOM
      1 C1           3.2590    -4.1230    -4.1870 c6         1 YZT       0.405300
      2 C2           4.3470    -3.7050    -5.2420 c6         1 YZT       0.146300
      3 C3           5.7500    -3.9710    -4.6270 c6         1 YZT       0.124300
      4 C4           5.8910    -3.2310    -3.2650 c6         1 YZT       0.105300
      5 C5           4.7240    -3.6810    -2.3180 c6         1 YZT       0.199300
      6 C6           4.7090    -2.9110    -0.9750 c3         1 YZT      -0.350400
      7 O1           1.9510    -3.7530    -4.5820 oh         1 YZT      -0.699000
      8 O1S6         4.0180    -2.7870     1.4990 o          1 YZT      -0.691200
      9 O2           4.2420    -4.4070    -6.5040 oh         1 YZT      -0.712000
     10 O2S6         4.2110    -5.0100     0.4410 o          1 YZT      -0.691200
     11 O3           6.7980    -3.5610    -5.5250 oh         1 YZT      -0.739000
     12 O3S6         2.3250    -3.5190    -0.1410 o          1 YZT      -0.691200
     13 O4           7.1980    -3.4970    -2.7090 oh         1 YZT      -0.733000
     14 O5           3.4610    -3.4090    -2.9640 os         1 YZT      -0.459000
     15 S6           3.7090    -3.6320     0.3370 s6         1 YZT       1.324600
     16 H1           3.3040    -5.2070    -3.9970 h2         1 YZT       0.028700
     17 H1O          1.6070    -3.3220    -3.7690 ho         1 YZT       0.524000
     18 H2           4.2490    -2.6220    -5.4120 h1         1 YZT       0.060700
     19 H2O          5.1450    -4.3270    -6.8960 ho         1 YZT       0.508000
     20 H3           5.8360    -5.0510    -4.4310 h1         1 YZT       0.049700
     21 H3O          7.5860    -3.4520    -4.9360 ho         1 YZT       0.515000
     22 H4           5.7790    -2.1510    -3.4470 h1         1 YZT       0.049700
     23 H4O          7.2910    -2.9360    -1.9040 ho         1 YZT       0.511000
     24 H5           4.8100    -4.7610    -2.1240 h1         1 YZT       0.064700
     25 H61          5.7190    -2.8760    -0.5570 h1         1 YZT       0.074700
     26 H62          4.3490    -1.8880    -1.1240 h1         1 YZT       0.074700
@<TRIPOS>BOND
     1     1     2 1   
     2     1     7 1   
     3     1    14 1   
     4     1    16 1   
     5     2     3 1   
     6     2     9 1   
     7     2    18 1   
     8     3     4 1   
     9     3    11 1   
    10     3    20 1   
    11     4     5 1   
    12     4    13 1   
    13     4    22 1   
    14     5     6 1   
    15     5    14 1   
    16     5    24 1   
    17     6    15 1   
    18     6    25 1   
    19     6    26 1   
    20     7    17 1   
    21     8    15 1   
    22     9    19 1   
    23    10    15 1   
    24    11    21 1   
    25    12    15 1   
    26    13    23 1   
@<TRIPOS>SUBSTRUCTURE
     1 YZT         1 TEMP              0 ****  ****    0 ROOT
