@<TRIPOS>MOLECULE
YZV
   59    61     1     0     0
SMALL
No Charge or Current Charge


@<TRIPOS>ATOM
      1 C10        158.3140   142.1940   158.4050 c2         1 YZV      -0.219200
      2 C13        155.6650   140.8110   158.9130 c5         1 YZV      -0.124400
      3 C17        158.7860   136.7830   158.4230 c3         1 YZV      -0.071400
      4 C20        159.8730   133.3470   156.7280 c3         1 YZV      -0.115700
      5 C21        158.8040   133.0780   155.7030 cc         1 YZV       0.402800
      6 C01        158.7680   139.8040   154.1580 ca         1 YZV      -0.116000
      7 N01        157.8210   139.7940   158.6630 n3         1 YZV      -0.802600
      8 O01        159.6540   144.8120   157.5960 oh         1 YZV      -0.636000
      9 C02        160.0590   139.2550   154.1510 ca         1 YZV      -0.091000
     10 N02        158.8090   133.5000   154.4060 na         1 YZV      -0.218700
     11 O02        155.9700   138.7370   157.6460 oh         1 YZV      -0.662000
     12 C03        161.1450   140.0230   154.5990 ca         1 YZV      -0.116000
     13 N03        157.6880   133.0800   153.7680 nc         1 YZV      -0.206800
     14 C04        160.9410   141.3370   155.0560 ca         1 YZV      -0.076500
     15 N04        157.0270   132.4140   154.6760 nd         1 YZV      -0.044000
     16 C05        159.6450   141.8990   155.0780 ca         1 YZV      -0.161300
     17 N05        157.6930   132.3950   155.8800 nd         1 YZV      -0.390000
     18 C06        158.5590   141.1170   154.6160 ca         1 YZV      -0.076500
     19 C07        159.4370   143.3340   155.5980 c3         1 YZV       0.249300
     20 C08        160.0130   143.5370   157.0480 c3         1 YZV       0.165500
     21 C09        159.5800   142.4770   158.0430 c2         1 YZV      -0.267200
     22 C11        158.0310   141.0640   159.4080 c5         1 YZV       0.256700
     23 C12        156.5560   139.9880   157.9300 c5         1 YZV       0.444500
     24 C14        156.6370   141.2520   160.0500 c5         1 YZV      -0.076400
     25 C16        158.9460   137.8710   157.3320 c3         1 YZV      -0.074400
     26 C18        158.6810   135.3400   157.8740 c3         1 YZV      -0.078400
     27 C19        159.9620   134.8260   157.1730 c3         1 YZV      -0.075400
     28 F02        158.1250   143.6830   155.5870 f          1 YZV      -0.106000
     29 H1         157.4910   142.7760   157.9890 ha         1 YZV       0.183000
     30 H2         155.2290   141.6750   158.3990 hc         1 YZV       0.052200
     31 H3         154.8290   140.2290   159.3170 hc         1 YZV       0.052200
     32 H4         159.8910   139.3800   158.5230 h1         1 YZV       0.030200
     33 H5         159.1750   139.9860   157.0370 h1         1 YZV       0.030200
     34 H6         159.6260   136.8450   159.1240 hc         1 YZV       0.051200
     35 H7         157.8800   136.9940   159.0040 hc         1 YZV       0.051200
     36 H8         160.8430   133.0410   156.3180 hc         1 YZV       0.072700
     37 H9         159.7030   132.7150   157.6080 hc         1 YZV       0.072700
     38 H10        157.9250   139.2110   153.8120 ha         1 YZV       0.117000
     39 H12        159.6410   144.6930   158.5700 ho         1 YZV       0.454000
     40 H13        160.2180   138.2380   153.7990 ha         1 YZV       0.117000
     41 H14        159.5260   134.0490   153.9470 hn         1 YZV       0.384000
     42 H15        155.1220   138.9430   157.2050 ho         1 YZV       0.443000
     43 H16        162.1480   139.6010   154.5920 ha         1 YZV       0.117000
     44 H17        161.7970   141.9170   155.3930 ha         1 YZV       0.125000
     45 H18        157.5470   141.5140   154.6130 ha         1 YZV       0.125000
     46 H19        161.1080   143.4840   156.9700 h1         1 YZV       0.053700
     47 H20        160.4120   141.9010   158.4530 ha         1 YZV       0.184000
     48 H21        158.8210   140.9830   160.1700 h1         1 YZV       0.064700
     49 H22        156.7240   140.5520   157.0020 h2         1 YZV       0.022700
     50 H23        156.5310   140.6020   160.9260 hc         1 YZV       0.058700
     51 H24        156.4620   142.2800   160.3880 hc         1 YZV       0.058700
     52 H25        159.8810   137.6970   156.7890 hc         1 YZV       0.036700
     53 H26        158.1450   137.7820   156.5910 hc         1 YZV       0.036700
     54 H27        157.8330   135.2850   157.1800 hc         1 YZV       0.048200
     55 H28        158.4430   134.6700   158.7100 hc         1 YZV       0.048200
     56 H29        160.8130   134.9360   157.8580 hc         1 YZV       0.040700
     57 H30        160.1820   135.4460   156.2950 hc         1 YZV       0.040700
     58 C15        158.9980   139.3150   157.8860 c3         1 YZV       0.219800
     59 F01        160.0540   144.2110   154.7690 f          1 YZV      -0.106000
@<TRIPOS>BOND
     1     1    21 2   
     2     1    22 1   
     3     1    29 1   
     4     2    23 1   
     5     2    24 1   
     6     2    30 1   
     7     2    31 1   
     8     3    25 1   
     9     3    26 1   
    10     3    34 1   
    11     3    35 1   
    12     4     5 1   
    13     4    27 1   
    14     4    36 1   
    15     4    37 1   
    16     5    10 1   
    17     5    17 2   
    18     6     9 ar  
    19     6    18 ar  
    20     6    38 1   
    21     7    22 1   
    22     7    23 1   
    23     7    58 1   
    24     8    20 1   
    25     8    39 1   
    26     9    12 ar  
    27     9    40 1   
    28    10    13 1   
    29    10    41 1   
    30    11    23 1   
    31    11    42 1   
    32    12    14 ar  
    33    12    43 1   
    34    13    15 2   
    35    14    16 ar  
    36    14    44 1   
    37    15    17 1   
    38    16    18 ar  
    39    16    19 1   
    40    18    45 1   
    41    19    20 1   
    42    19    28 1   
    43    19    59 1   
    44    20    21 1   
    45    20    46 1   
    46    21    47 1   
    47    22    24 1   
    48    22    48 1   
    49    23    49 1   
    50    24    50 1   
    51    24    51 1   
    52    25    52 1   
    53    25    53 1   
    54    25    58 1   
    55    26    27 1   
    56    26    54 1   
    57    26    55 1   
    58    27    56 1   
    59    27    57 1   
    60    32    58 1   
    61    33    58 1   
@<TRIPOS>SUBSTRUCTURE
     1 YZV         1 TEMP              0 ****  ****    0 ROOT
