@<TRIPOS>MOLECULE
YZV
   59    61     1     0     0
SMALL
abcg2


@<TRIPOS>ATOM
      1 C10        158.1200   141.8850   157.9990 c2         1 YZV      -0.219200
      2 C13        155.6560   140.6720   159.4170 c5         1 YZV      -0.124400
      3 C17        158.6050   136.8090   157.6610 c3         1 YZV      -0.071400
      4 C20        159.0400   133.3030   155.9640 c3         1 YZV      -0.115700
      5 C21        157.6860   132.7000   156.0380 cc         1 YZV       0.402800
      6 C01        162.2240   140.1540   155.2070 ca         1 YZV      -0.116000
      7 N01        157.3620   139.5430   158.2660 n3         1 YZV      -0.802600
      8 O01        158.3260   144.3630   156.5900 oh         1 YZV      -0.636000
      9 C02        163.4580   140.7590   155.3980 ca         1 YZV      -0.091000
     10 N02        156.6680   132.9740   155.2190 na         1 YZV      -0.218700
     11 O02        155.6860   138.2320   159.1770 oh         1 YZV      -0.662000
     12 C03        163.5330   142.1370   155.5520 ca         1 YZV      -0.116000
     13 N03        155.6120   132.2620   155.5770 nc         1 YZV      -0.206800
     14 C04        162.3800   142.9060   155.5140 ca         1 YZV      -0.076500
     15 N04        155.9730   131.5730   156.5860 nd         1 YZV      -0.044000
     16 C05        161.1410   142.3010   155.3230 ca         1 YZV      -0.161300
     17 N05        157.2470   131.8160   156.9040 nd         1 YZV      -0.390000
     18 C06        161.0680   140.9210   155.1690 ca         1 YZV      -0.076500
     19 C07        159.8990   143.1490   155.3330 c3         1 YZV       0.249300
     20 C08        159.4760   143.5820   156.7390 c3         1 YZV       0.165500
     21 C09        159.2940   142.3830   157.6300 c2         1 YZV      -0.267200
     22 C11        157.9770   140.6970   158.9110 c5         1 YZV       0.256700
     23 C12        155.9570   139.4630   158.5250 c5         1 YZV       0.444500
     24 C14        157.0060   140.9780   160.0580 c5         1 YZV      -0.076400
     25 C16        157.7610   137.6410   156.7050 c3         1 YZV      -0.074400
     26 C18        158.4910   135.3030   157.4470 c3         1 YZV      -0.078400
     27 C19        159.0270   134.8270   156.1020 c3         1 YZV      -0.075400
     28 F02        158.8700   142.4890   154.7350 f          1 YZV      -0.106000
     29 H1         157.2010   142.3350   157.6330 ha         1 YZV       0.183000
     30 H2         155.3250   141.5130   158.8030 hc         1 YZV       0.052200
     31 H3         154.8630   140.4700   160.1380 hc         1 YZV       0.052200
     32 H4         158.9020   139.4380   156.9040 h1         1 YZV       0.030200
     33 H5         157.3360   139.6770   156.1570 h1         1 YZV       0.030200
     34 H6         159.6550   137.1100   157.5700 hc         1 YZV       0.051200
     35 H7         158.3090   137.0400   158.6860 hc         1 YZV       0.051200
     36 H8         159.4990   133.0220   155.0120 hc         1 YZV       0.072700
     37 H9         159.6450   132.8560   156.7530 hc         1 YZV       0.072700
     38 H10        162.1570   139.0810   155.0860 ha         1 YZV       0.117000
     39 H12        158.0640   144.6810   157.4600 ho         1 YZV       0.454000
     40 H13        164.3590   140.1590   155.4280 ha         1 YZV       0.117000
     41 H14        156.6250   133.6040   154.4290 hn         1 YZV       0.384000
     42 H15        154.7300   138.1230   159.2180 ho         1 YZV       0.443000
     43 H16        164.4920   142.6160   155.7010 ha         1 YZV       0.117000
     44 H17        162.4560   143.9790   155.6390 ha         1 YZV       0.125000
     45 H18        160.1150   140.4300   155.0250 ha         1 YZV       0.125000
     46 H19        160.3170   144.1710   157.1400 h1         1 YZV       0.053700
     47 H20        160.2080   141.9230   157.9950 ha         1 YZV       0.184000
     48 H21        158.9710   140.4270   159.2870 h1         1 YZV       0.064700
     49 H22        155.3770   139.5070   157.5900 h2         1 YZV       0.022700
     50 H23        157.2030   140.2930   160.8850 hc         1 YZV       0.058700
     51 H24        157.0880   141.9950   160.4400 hc         1 YZV       0.058700
     52 H25        158.0860   137.4800   155.6730 hc         1 YZV       0.036700
     53 H26        156.7190   137.3110   156.7470 hc         1 YZV       0.036700
     54 H27        157.4430   135.0040   157.5590 hc         1 YZV       0.048200
     55 H28        159.0370   134.7880   158.2440 hc         1 YZV       0.048200
     56 H29        160.0530   135.1810   155.9720 hc         1 YZV       0.040700
     57 H30        158.4510   135.2600   155.2800 hc         1 YZV       0.040700
     58 C15        157.8520   139.1410   156.9680 c3         1 YZV       0.219800
     59 F01        160.1070   144.2680   154.5760 f          1 YZV      -0.106000
@<TRIPOS>BOND
     1     1    21 2   
     2     1    22 1   
     3     1    29 1   
     4     2    23 1   
     5     2    24 1   
     6     2    30 1   
     7     2    31 1   
     8     3    25 1   
     9     3    26 1   
    10     3    34 1   
    11     3    35 1   
    12     4     5 1   
    13     4    27 1   
    14     4    36 1   
    15     4    37 1   
    16     5    10 1   
    17     5    17 2   
    18     6     9 ar  
    19     6    18 ar  
    20     6    38 1   
    21     7    22 1   
    22     7    23 1   
    23     7    58 1   
    24     8    20 1   
    25     8    39 1   
    26     9    12 ar  
    27     9    40 1   
    28    10    13 1   
    29    10    41 1   
    30    11    23 1   
    31    11    42 1   
    32    12    14 ar  
    33    12    43 1   
    34    13    15 2   
    35    14    16 ar  
    36    14    44 1   
    37    15    17 1   
    38    16    18 ar  
    39    16    19 1   
    40    18    45 1   
    41    19    20 1   
    42    19    28 1   
    43    19    59 1   
    44    20    21 1   
    45    20    46 1   
    46    21    47 1   
    47    22    24 1   
    48    22    48 1   
    49    23    49 1   
    50    24    50 1   
    51    24    51 1   
    52    25    52 1   
    53    25    53 1   
    54    25    58 1   
    55    26    27 1   
    56    26    54 1   
    57    26    55 1   
    58    27    56 1   
    59    27    57 1   
    60    32    58 1   
    61    33    58 1   
@<TRIPOS>SUBSTRUCTURE
     1 YZV         1 TEMP              0 ****  ****    0 ROOT
