@<TRIPOS>MOLECULE
YZY
  112   111     1     0     0
SMALL
No Charge or Current Charge


@<TRIPOS>ATOM
      1 O1           1.7540    -3.6010    -2.2740 oh         1 YZY      -0.636000
      2 C1           1.0500    -4.8560    -2.3600 c3         1 YZY       0.144600
      3 C2          -0.2430    -4.9000    -1.4770 c3         1 YZY       0.173300
      4 O2          -0.9860    -3.6580    -1.5810 os         1 YZY      -0.427100
      5 C3          -1.5900    -3.3390    -2.7700 c          1 YZY       0.593100
      6 O3          -1.6740    -4.0920    -3.7320 o          1 YZY      -0.497000
      7 C4          -2.3090    -1.9910    -2.6900 c3         1 YZY      -0.136400
      8 C5          -3.7620    -2.1560    -2.1850 c3         1 YZY      -0.069400
      9 C6          -4.5200    -0.8140    -2.0780 c3         1 YZY      -0.074400
     10 C7          -5.9700    -0.9780    -1.5740 c3         1 YZY      -0.075400
     11 C8          -6.7270     0.3630    -1.4650 c3         1 YZY      -0.073400
     12 C9          -8.1780     0.2000    -0.9600 c3         1 YZY      -0.075400
     13 C10         -8.9340     1.5420    -0.8510 c3         1 YZY      -0.073400
     14 C11        -10.3840     1.3790    -0.3460 c3         1 YZY      -0.075400
     15 C12        -11.1400     2.7210    -0.2350 c3         1 YZY      -0.073400
     16 C13        -12.5910     2.5580     0.2700 c3         1 YZY      -0.075400
     17 C14        -13.3460     3.9000     0.3810 c3         1 YZY      -0.073400
     18 C15        -14.7970     3.7370     0.8860 c3         1 YZY      -0.074400
     19 C16        -15.5530     5.0790     0.9960 c3         1 YZY      -0.075400
     20 C17        -17.0030     4.9170     1.5000 c3         1 YZY      -0.075400
     21 C18        -17.7580     6.2560     1.6100 c3         1 YZY      -0.088100
     22 C19          0.0210    -5.1810     0.0280 c3         1 YZY       0.169600
     23 O4           0.8580    -4.1500     0.5920 os         1 YZY      -0.415100
     24 C20          1.1860    -4.2390     1.9170 c          1 YZY       0.591100
     25 O5           0.8390    -5.1500     2.6570 o          1 YZY      -0.499000
     26 C21          2.0950    -3.0890     2.3550 c3         1 YZY      -0.136400
     27 C22          3.5890    -3.4780     2.2440 c3         1 YZY      -0.069400
     28 C23          4.5430    -2.3410     2.6710 c3         1 YZY      -0.074400
     29 C24          6.0330    -2.7310     2.5630 c3         1 YZY      -0.075400
     30 C25          6.9870    -1.5940     2.9910 c3         1 YZY      -0.074400
     31 C26          8.4780    -1.9850     2.8850 c3         1 YZY      -0.073400
     32 C27          9.4330    -0.8510     3.3100 c3         1 YZY      -0.042200
     33 C28         10.8900    -1.2560     3.1890 c2         1 YZY      -0.216200
     34 C29         11.7160    -0.9990     2.1600 c2         1 YZY      -0.215200
     35 C30         11.3650    -0.2800     0.8700 c3         1 YZY      -0.042200
     36 C31         11.7440     1.2150     0.9180 c3         1 YZY      -0.073400
     37 C32         11.3870     1.9720    -0.3800 c3         1 YZY      -0.075400
     38 C33         11.7650     3.4690    -0.3300 c3         1 YZY      -0.074400
     39 C34         11.4080     4.2270    -1.6270 c3         1 YZY      -0.074400
     40 C35         11.7860     5.7230    -1.5760 c3         1 YZY      -0.075400
     41 C36         11.4280     6.4810    -2.8730 c3         1 YZY      -0.074400
     42 C37         11.8050     7.9740    -2.8230 c3         1 YZY      -0.089100
     43 H1O          2.5550    -3.6790    -2.8380 ho         1 YZY       0.441000
     44 H11          0.7680    -5.0480    -3.4030 h1         1 YZY       0.030700
     45 H12          1.7100    -5.6800    -2.0570 h1         1 YZY       0.030700
     46 H21         -0.8600    -5.7340    -1.8380 h1         1 YZY       0.072700
     47 H41         -1.7800    -1.3490    -1.9760 hc         1 YZY       0.074200
     48 H42         -2.3230    -1.5330    -3.6850 hc         1 YZY       0.074200
     49 H51         -4.3060    -2.8250    -2.8650 hc         1 YZY       0.053700
     50 H52         -3.7490    -2.6430    -1.2010 hc         1 YZY       0.053700
     51 H61         -3.9760    -0.1460    -1.3990 hc         1 YZY       0.038200
     52 H62         -4.5330    -0.3290    -3.0620 hc         1 YZY       0.038200
     53 H71         -6.5150    -1.6450    -2.2540 hc         1 YZY       0.039700
     54 H72         -5.9570    -1.4650    -0.5900 hc         1 YZY       0.039700
     55 H81         -6.1820     1.0300    -0.7850 hc         1 YZY       0.037700
     56 H82         -6.7410     0.8500    -2.4490 hc         1 YZY       0.037700
     57 H91         -8.7230    -0.4660    -1.6410 hc         1 YZY       0.037200
     58 H92         -8.1640    -0.2880     0.0230 hc         1 YZY       0.037200
     59 H101        -8.3890     2.2080    -0.1700 hc         1 YZY       0.037700
     60 H102        -8.9480     2.0290    -1.8340 hc         1 YZY       0.037700
     61 H111       -10.9300     0.7130    -1.0260 hc         1 YZY       0.037200
     62 H112       -10.3710     0.8910     0.6370 hc         1 YZY       0.037200
     63 H121       -10.5950     3.3860     0.4460 hc         1 YZY       0.037200
     64 H122       -11.1540     3.2090    -1.2170 hc         1 YZY       0.037200
     65 H131       -13.1360     1.8920    -0.4110 hc         1 YZY       0.036700
     66 H132       -12.5770     2.0700     1.2530 hc         1 YZY       0.036700
     67 H141       -12.8010     4.5650     1.0620 hc         1 YZY       0.037200
     68 H142       -13.3600     4.3880    -0.6020 hc         1 YZY       0.037200
     69 H151       -15.3420     3.0710     0.2050 hc         1 YZY       0.036700
     70 H152       -14.7840     3.2490     1.8690 hc         1 YZY       0.036700
     71 H161       -15.0070     5.7450     1.6770 hc         1 YZY       0.036700
     72 H162       -15.5660     5.5670     0.0130 hc         1 YZY       0.036700
     73 H171       -17.5530     4.2530     0.8210 hc         1 YZY       0.036700
     74 H172       -16.9940     4.4310     2.4840 hc         1 YZY       0.036700
     75 H181       -17.2520     6.9300     2.3110 hc         1 YZY       0.031367
     76 H182       -17.8150     6.7500     0.6330 hc         1 YZY       0.031367
     77 H183       -18.7800     6.0900     1.9710 hc         1 YZY       0.031367
     78 H191        -0.9420    -5.2260     0.5530 h1         1 YZY       0.057200
     79 H192         0.5030    -6.1630     0.1260 h1         1 YZY       0.057200
     80 H211         1.9280    -2.2300     1.6950 hc         1 YZY       0.073700
     81 H212         1.8680    -2.8280     3.3950 hc         1 YZY       0.073700
     82 H221         3.7780    -4.3620     2.8670 hc         1 YZY       0.053200
     83 H222         3.8100    -3.7650     1.2080 hc         1 YZY       0.053200
     84 H231         4.3550    -1.4590     2.0450 hc         1 YZY       0.037700
     85 H232         4.3200    -2.0530     3.7060 hc         1 YZY       0.037700
     86 H241         6.2210    -3.6130     3.1890 hc         1 YZY       0.039700
     87 H242         6.2570    -3.0190     1.5280 hc         1 YZY       0.039700
     88 H251         6.8010    -0.7130     2.3640 hc         1 YZY       0.037200
     89 H252         6.7630    -1.3060     4.0250 hc         1 YZY       0.037200
     90 H261         8.6670    -2.8660     3.5110 hc         1 YZY       0.040200
     91 H262         8.7030    -2.2730     1.8510 hc         1 YZY       0.040200
     92 H271         9.2260     0.0370     2.7000 hc         1 YZY       0.044200
     93 H272         9.2160    -0.5610     4.3450 hc         1 YZY       0.044200
     94 H281        11.2690    -1.7960     4.0600 ha         1 YZY       0.164000
     95 H291        12.7530    -1.3390     2.2040 ha         1 YZY       0.164000
     96 H301        11.8820    -0.7590     0.0290 hc         1 YZY       0.044200
     97 H302        10.2940    -0.3700     0.6560 hc         1 YZY       0.044200
     98 H311        11.2300     1.6870     1.7640 hc         1 YZY       0.039200
     99 H312        12.8210     1.3060     1.1060 hc         1 YZY       0.039200
    100 H321        11.9010     1.4990    -1.2260 hc         1 YZY       0.037200
    101 H322        10.3100     1.8790    -0.5670 hc         1 YZY       0.037200
    102 H331        11.2520     3.9420     0.5170 hc         1 YZY       0.037200
    103 H332        12.8430     3.5620    -0.1440 hc         1 YZY       0.037200
    104 H341        11.9210     3.7540    -2.4730 hc         1 YZY       0.036700
    105 H342        10.3300     4.1340    -1.8130 hc         1 YZY       0.036700
    106 H351        11.2720     6.1960    -0.7300 hc         1 YZY       0.037200
    107 H352        12.8630     5.8170    -1.3910 hc         1 YZY       0.037200
    108 H361        11.9410     6.0130    -3.7220 hc         1 YZY       0.036700
    109 H362        10.3510     6.3920    -3.0610 hc         1 YZY       0.036700
    110 H371        11.2790     8.4800    -2.0040 hc         1 YZY       0.031367
    111 H372        12.8840     8.0970    -2.6710 hc         1 YZY       0.031367
    112 H373        11.5320     8.4690    -3.7630 hc         1 YZY       0.031367
@<TRIPOS>BOND
     1     1     2 1   
     2     1    43 1   
     3     2     3 1   
     4     2    44 1   
     5     2    45 1   
     6     3     4 1   
     7     3    22 1   
     8     3    46 1   
     9     4     5 1   
    10     5     6 2   
    11     5     7 1   
    12     7     8 1   
    13     7    47 1   
    14     7    48 1   
    15     8     9 1   
    16     8    49 1   
    17     8    50 1   
    18     9    10 1   
    19     9    51 1   
    20     9    52 1   
    21    10    11 1   
    22    10    53 1   
    23    10    54 1   
    24    11    12 1   
    25    11    55 1   
    26    11    56 1   
    27    12    13 1   
    28    12    57 1   
    29    12    58 1   
    30    13    14 1   
    31    13    59 1   
    32    13    60 1   
    33    14    15 1   
    34    14    61 1   
    35    14    62 1   
    36    15    16 1   
    37    15    63 1   
    38    15    64 1   
    39    16    17 1   
    40    16    65 1   
    41    16    66 1   
    42    17    18 1   
    43    17    67 1   
    44    17    68 1   
    45    18    19 1   
    46    18    69 1   
    47    18    70 1   
    48    19    20 1   
    49    19    71 1   
    50    19    72 1   
    51    20    21 1   
    52    20    73 1   
    53    20    74 1   
    54    21    75 1   
    55    21    76 1   
    56    21    77 1   
    57    22    23 1   
    58    22    78 1   
    59    22    79 1   
    60    23    24 1   
    61    24    25 2   
    62    24    26 1   
    63    26    27 1   
    64    26    80 1   
    65    26    81 1   
    66    27    28 1   
    67    27    82 1   
    68    27    83 1   
    69    28    29 1   
    70    28    84 1   
    71    28    85 1   
    72    29    30 1   
    73    29    86 1   
    74    29    87 1   
    75    30    31 1   
    76    30    88 1   
    77    30    89 1   
    78    31    32 1   
    79    31    90 1   
    80    31    91 1   
    81    32    33 1   
    82    32    92 1   
    83    32    93 1   
    84    33    34 2   
    85    33    94 1   
    86    34    35 1   
    87    34    95 1   
    88    35    36 1   
    89    35    96 1   
    90    35    97 1   
    91    36    37 1   
    92    36    98 1   
    93    36    99 1   
    94    37    38 1   
    95    37   100 1   
    96    37   101 1   
    97    38    39 1   
    98    38   102 1   
    99    38   103 1   
   100    39    40 1   
   101    39   104 1   
   102    39   105 1   
   103    40    41 1   
   104    40   106 1   
   105    40   107 1   
   106    41    42 1   
   107    41   108 1   
   108    41   109 1   
   109    42   110 1   
   110    42   111 1   
   111    42   112 1   
@<TRIPOS>SUBSTRUCTURE
     1 YZY         1 TEMP              0 ****  ****    0 ROOT
