@<TRIPOS>MOLECULE
YZY
  112   111     1     0     0
SMALL
bcc


@<TRIPOS>ATOM
      1 O1          -0.1310    -3.9770    -3.1060 oh         1 YZY      -0.573800
      2 C1          -0.8510    -5.1660    -2.9110 c3         1 YZY       0.121400
      3 C2          -1.2030    -5.3560    -1.4460 c3         1 YZY       0.150100
      4 O2          -1.9330    -4.2330    -0.9410 os         1 YZY      -0.403900
      5 C3          -3.2520    -4.1920    -1.1280 c          1 YZY       0.642100
      6 O3          -3.8720    -5.0660    -1.6790 o          1 YZY      -0.546000
      7 C4          -3.8500    -2.9280    -0.5740 c3         1 YZY      -0.136400
      8 C5          -5.3610    -2.8650    -0.7190 c3         1 YZY      -0.069400
      9 C6          -5.9440    -1.5550    -0.2050 c3         1 YZY      -0.074400
     10 C7          -7.4580    -1.5000    -0.3620 c3         1 YZY      -0.075400
     11 C8          -8.0820    -0.1920     0.1060 c3         1 YZY      -0.073400
     12 C9          -9.5940    -0.1650    -0.0860 c3         1 YZY      -0.075400
     13 C10        -10.2490     1.1430     0.3380 c3         1 YZY      -0.073400
     14 C11        -11.7560     1.1440     0.1070 c3         1 YZY      -0.075400
     15 C12        -12.4380     2.4500     0.4930 c3         1 YZY      -0.073400
     16 C13        -13.9400     2.4300     0.2370 c3         1 YZY      -0.075400
     17 C14        -14.6400     3.7350     0.5940 c3         1 YZY      -0.073400
     18 C15        -16.1390     3.7010     0.3210 c3         1 YZY      -0.074400
     19 C16        -16.8490     5.0030     0.6690 c3         1 YZY      -0.075400
     20 C17        -18.3460     4.9650     0.3880 c3         1 YZY      -0.075400
     21 C18        -19.0480     6.2700     0.7380 c3         1 YZY      -0.088100
     22 C19         -0.0380    -5.6040    -0.5160 c3         1 YZY       0.146400
     23 O4           0.8070    -4.4570    -0.4600 os         1 YZY      -0.391900
     24 C20          1.9380    -4.5690     0.2270 c          1 YZY       0.640100
     25 O5           2.2710    -5.5850     0.7870 o          1 YZY      -0.548000
     26 C21          2.7230    -3.2860     0.2230 c3         1 YZY      -0.136400
     27 C22          4.1180    -3.4340     0.8090 c3         1 YZY      -0.069400
     28 C23          4.8830    -2.1170     0.8400 c3         1 YZY      -0.074400
     29 C24          6.2870    -2.2830     1.4080 c3         1 YZY      -0.075400
     30 C25          7.0650    -0.9780     1.5180 c3         1 YZY      -0.074400
     31 C26          8.4680    -1.1790     2.0760 c3         1 YZY      -0.073400
     32 C27          9.2490     0.1260     2.2390 c3         1 YZY      -0.042200
     33 C28         10.5900    -0.1040     2.8630 c2         1 YZY      -0.166200
     34 C29         11.7920     0.1530     2.3480 c2         1 YZY      -0.165200
     35 C30         12.1180     0.7830     1.0300 c3         1 YZY      -0.042200
     36 C31         12.9290     2.0690     1.1990 c3         1 YZY      -0.073400
     37 C32         13.3660     2.6810    -0.1250 c3         1 YZY      -0.075400
     38 C33         14.2110     3.9370     0.0510 c3         1 YZY      -0.074400
     39 C34         14.6620     4.5530    -1.2680 c3         1 YZY      -0.074400
     40 C35         15.5340     5.7890    -1.0850 c3         1 YZY      -0.075400
     41 C36         15.9850     6.4100    -2.4010 c3         1 YZY      -0.074400
     42 C37         16.8740     7.6310    -2.2070 c3         1 YZY      -0.089100
     43 H1O         -0.1080    -3.8010    -4.0510 ho         1 YZY       0.402000
     44 H11         -1.7800    -5.1740    -3.4920 h1         1 YZY       0.030700
     45 H12         -0.2850    -6.0540    -3.2230 h1         1 YZY       0.030700
     46 H21         -1.8150    -6.2620    -1.3890 h1         1 YZY       0.072700
     47 H41         -3.5540    -2.8340     0.4750 hc         1 YZY       0.074200
     48 H42         -3.3800    -2.0810    -1.0860 hc         1 YZY       0.074200
     49 H51         -5.6360    -2.9920    -1.7700 hc         1 YZY       0.053700
     50 H52         -5.8190    -3.7000    -0.1800 hc         1 YZY       0.053700
     51 H61         -5.6800    -1.4190     0.8490 hc         1 YZY       0.038200
     52 H62         -5.4900    -0.7160    -0.7430 hc         1 YZY       0.038200
     53 H71         -7.7150    -1.6620    -1.4160 hc         1 YZY       0.039700
     54 H72         -7.9090    -2.3330     0.1880 hc         1 YZY       0.039700
     55 H81         -7.8430    -0.0270     1.1620 hc         1 YZY       0.037700
     56 H82         -7.6300     0.6430    -0.4410 hc         1 YZY       0.037700
     57 H91         -9.8220    -0.3550    -1.1410 hc         1 YZY       0.037200
     58 H92        -10.0440    -0.9940     0.4710 hc         1 YZY       0.037200
     59 H101       -10.0410     1.3330     1.3970 hc         1 YZY       0.037700
     60 H102        -9.7960     1.9730    -0.2140 hc         1 YZY       0.037700
     61 H111       -11.9550     0.9320    -0.9490 hc         1 YZY       0.037200
     62 H112       -12.2090     0.3190     0.6690 hc         1 YZY       0.037200
     63 H121       -12.2520     2.6640     1.5510 hc         1 YZY       0.037200
     64 H122       -11.9850     3.2760    -0.0670 hc         1 YZY       0.037200
     65 H131       -14.1210     2.1990    -0.8190 hc         1 YZY       0.036700
     66 H132       -14.3930     1.6090     0.8050 hc         1 YZY       0.036700
     67 H141       -14.4690     3.9650     1.6510 hc         1 YZY       0.037200
     68 H142       -14.1860     4.5560     0.0280 hc         1 YZY       0.037200
     69 H151       -16.3070     3.4670    -0.7360 hc         1 YZY       0.036700
     70 H152       -16.5920     2.8780     0.8860 hc         1 YZY       0.036700
     71 H161       -16.6860     5.2360     1.7280 hc         1 YZY       0.036700
     72 H162       -16.3950     5.8270     0.1070 hc         1 YZY       0.036700
     73 H171       -18.5080     4.7320    -0.6680 hc         1 YZY       0.036700
     74 H172       -18.7980     4.1420     0.9510 hc         1 YZY       0.036700
     75 H181       -18.9380     6.5050     1.7980 hc         1 YZY       0.031367
     76 H182       -18.6300     7.1050     0.1720 hc         1 YZY       0.031367
     77 H183       -20.1150     6.2250     0.5190 hc         1 YZY       0.031367
     78 H191        -0.4120    -5.8410     0.4830 h1         1 YZY       0.057200
     79 H192         0.5100    -6.4750    -0.8810 h1         1 YZY       0.057200
     80 H211         2.7690    -2.9060    -0.8020 hc         1 YZY       0.073700
     81 H212         2.1490    -2.5420     0.7860 hc         1 YZY       0.073700
     82 H221         4.0500    -3.8320     1.8250 hc         1 YZY       0.053200
     83 H222         4.6840    -4.1680     0.2280 hc         1 YZY       0.053200
     84 H231         4.9450    -1.6990    -0.1710 hc         1 YZY       0.037700
     85 H232         4.3300    -1.3860     1.4400 hc         1 YZY       0.037700
     86 H241         6.2220    -2.7450     2.3990 hc         1 YZY       0.039700
     87 H242         6.8470    -2.9880     0.7830 hc         1 YZY       0.039700
     88 H251         7.1290    -0.5030     0.5330 hc         1 YZY       0.037200
     89 H252         6.5150    -0.2790     2.1580 hc         1 YZY       0.037200
     90 H261         8.4010    -1.6810     3.0470 hc         1 YZY       0.040200
     91 H262         9.0280    -1.8550     1.4230 hc         1 YZY       0.040200
     92 H271         9.3380     0.6230     1.2700 hc         1 YZY       0.044200
     93 H272         8.6690     0.8020     2.8780 hc         1 YZY       0.044200
     94 H281        10.5590    -0.5590     3.8500 ha         1 YZY       0.114000
     95 H291        12.6570    -0.1030     2.9550 ha         1 YZY       0.114000
     96 H301        12.7090     0.0770     0.4350 hc         1 YZY       0.044200
     97 H302        11.2150     0.9920     0.4530 hc         1 YZY       0.044200
     98 H311        12.3390     2.7970     1.7640 hc         1 YZY       0.039200
     99 H312        13.8140     1.8560     1.8090 hc         1 YZY       0.039200
    100 H321        13.9340     1.9390    -0.6970 hc         1 YZY       0.037200
    101 H322        12.4820     2.9180    -0.7290 hc         1 YZY       0.037200
    102 H331        13.6450     4.6790     0.6240 hc         1 YZY       0.037200
    103 H332        15.0910     3.6940     0.6570 hc         1 YZY       0.037200
    104 H341        15.2130     3.8040    -1.8490 hc         1 YZY       0.036700
    105 H342        13.7830     4.8150    -1.8680 hc         1 YZY       0.036700
    106 H351        14.9870     6.5370    -0.5000 hc         1 YZY       0.037200
    107 H352        16.4150     5.5240    -0.4890 hc         1 YZY       0.037200
    108 H361        16.5190     5.6600    -2.9920 hc         1 YZY       0.036700
    109 H362        15.1060     6.6890    -2.9910 hc         1 YZY       0.036700
    110 H371        16.3590     8.4080    -1.6390 hc         1 YZY       0.031367
    111 H372        17.7820     7.3730    -1.6580 hc         1 YZY       0.031367
    112 H373        17.1770     8.0650    -3.1610 hc         1 YZY       0.031367
@<TRIPOS>BOND
     1     1     2 1   
     2     1    43 1   
     3     2     3 1   
     4     2    44 1   
     5     2    45 1   
     6     3     4 1   
     7     3    22 1   
     8     3    46 1   
     9     4     5 1   
    10     5     6 2   
    11     5     7 1   
    12     7     8 1   
    13     7    47 1   
    14     7    48 1   
    15     8     9 1   
    16     8    49 1   
    17     8    50 1   
    18     9    10 1   
    19     9    51 1   
    20     9    52 1   
    21    10    11 1   
    22    10    53 1   
    23    10    54 1   
    24    11    12 1   
    25    11    55 1   
    26    11    56 1   
    27    12    13 1   
    28    12    57 1   
    29    12    58 1   
    30    13    14 1   
    31    13    59 1   
    32    13    60 1   
    33    14    15 1   
    34    14    61 1   
    35    14    62 1   
    36    15    16 1   
    37    15    63 1   
    38    15    64 1   
    39    16    17 1   
    40    16    65 1   
    41    16    66 1   
    42    17    18 1   
    43    17    67 1   
    44    17    68 1   
    45    18    19 1   
    46    18    69 1   
    47    18    70 1   
    48    19    20 1   
    49    19    71 1   
    50    19    72 1   
    51    20    21 1   
    52    20    73 1   
    53    20    74 1   
    54    21    75 1   
    55    21    76 1   
    56    21    77 1   
    57    22    23 1   
    58    22    78 1   
    59    22    79 1   
    60    23    24 1   
    61    24    25 2   
    62    24    26 1   
    63    26    27 1   
    64    26    80 1   
    65    26    81 1   
    66    27    28 1   
    67    27    82 1   
    68    27    83 1   
    69    28    29 1   
    70    28    84 1   
    71    28    85 1   
    72    29    30 1   
    73    29    86 1   
    74    29    87 1   
    75    30    31 1   
    76    30    88 1   
    77    30    89 1   
    78    31    32 1   
    79    31    90 1   
    80    31    91 1   
    81    32    33 1   
    82    32    92 1   
    83    32    93 1   
    84    33    34 2   
    85    33    94 1   
    86    34    35 1   
    87    34    95 1   
    88    35    36 1   
    89    35    96 1   
    90    35    97 1   
    91    36    37 1   
    92    36    98 1   
    93    36    99 1   
    94    37    38 1   
    95    37   100 1   
    96    37   101 1   
    97    38    39 1   
    98    38   102 1   
    99    38   103 1   
   100    39    40 1   
   101    39   104 1   
   102    39   105 1   
   103    40    41 1   
   104    40   106 1   
   105    40   107 1   
   106    41    42 1   
   107    41   108 1   
   108    41   109 1   
   109    42   110 1   
   110    42   111 1   
   111    42   112 1   
@<TRIPOS>SUBSTRUCTURE
     1 YZY         1 TEMP              0 ****  ****    0 ROOT
