@<TRIPOS>MOLECULE
600
   96   102     1     0     0
SMALL
abcg2


@<TRIPOS>ATOM
      1 C1          -7.0930    -3.5470    -1.5740 ca         1 600      -0.118000
      2 C2          -6.1830    -3.6080    -2.6190 ca         1 600      -0.119000
      3 C3          -4.9130    -3.0620    -2.4740 ca         1 600      -0.081000
      4 C4          -4.5330    -2.4460    -1.2860 ca         1 600      -0.081300
      5 C5          -5.4620    -2.3780    -0.2480 ca         1 600      -0.081000
      6 C6          -6.7250    -2.9280    -0.3870 ca         1 600      -0.119000
      7 C10         -4.2230     1.1980     0.3720 ca         1 600      -0.119500
      8 C11         -4.4190     0.4810    -0.8040 ca         1 600      -0.149300
      9 C12         -5.6940     0.4980    -1.3670 ca         1 600      -0.119500
     10 C13         -6.7410     1.1720    -0.7640 ca         1 600      -0.085000
     11 C14         -6.5470     1.8560     0.4340 ca         1 600      -0.041300
     12 C15         -5.2700     1.8780     0.9810 ca         1 600      -0.085000
     13 C20         -0.1360    -0.8590    -2.2970 ca         1 600      -0.110500
     14 C21         -0.6970    -2.0210    -1.7730 ca         1 600      -0.118300
     15 C22          0.0960    -2.8080    -0.9410 ca         1 600      -0.110500
     16 C23          1.3870    -2.4290    -0.6120 ca         1 600      -0.101000
     17 C24          1.9390    -1.2480    -1.1110 cp         1 600       0.014000
     18 C25          1.1540    -0.4740    -1.9670 ca         1 600      -0.101000
     19 C30         -3.1720    -1.7810    -1.1420 c3         1 600       0.163300
     20 N31         -2.7060    -1.9740     0.2340 na         1 600       0.088600
     21 C32         -2.1110    -2.4210    -2.0830 c3         1 600      -0.032100
     22 C35         -3.3040    -0.2720    -1.4770 c3         1 600      -0.004100
     23 C40         -2.0900    -5.0100     2.8770 ca         1 600      -0.164000
     24 C41         -1.6430    -3.7250     3.0820 ca         1 600      -0.028000
     25 C42         -1.9250    -2.7850     2.0850 ca         1 600       0.016400
     26 C43         -2.6400    -3.1370     0.9390 ca         1 600      -0.084200
     27 C44         -3.0920    -4.4440     0.7240 ca         1 600      -0.096000
     28 C45         -2.8010    -5.3600     1.7100 ca         1 600      -0.116000
     29 N46         -1.5960    -1.4640     1.9910 nc         1 600      -0.222400
     30 N47         -2.0520    -1.0180     0.8870 nd         1 600      -0.090400
     31 C52         -7.6880     2.5820     1.0710 c3         1 600      -0.053700
     32 F53         -8.7990     1.7550     1.0420 f          1 600      -0.164500
     33 F54         -7.4180     2.7430     2.4170 f          1 600      -0.164500
     34 P55         -8.1080     4.2520     0.2990 p5         1 600       1.269500
     35 O56         -6.7970     5.0200     0.4260 o          1 600      -0.904167
     36 O57         -8.5100     3.8770    -1.1240 o          1 600      -0.904167
     37 O58         -9.2480     4.7740     1.1710 o          1 600      -0.904167
     38 C61          4.3160    -1.7570    -0.6080 ca         1 600      -0.158000
     39 C62          7.9210    -1.8000     0.2390 ca         1 600      -0.186000
     40 C63          6.6840    -2.2520    -0.1180 ca         1 600      -0.102000
     41 C64          5.6130    -1.3390    -0.2440 ca         1 600      -0.099000
     42 C65          5.8810     0.0340    -0.0010 ca         1 600       0.311000
     43 N66          7.1110     0.4460     0.3870 nb         1 600      -0.549000
     44 C67          8.0810    -0.4200     0.4990 ca         1 600       0.261300
     45 C68          3.3080    -0.8350    -0.7480 cp         1 600      -0.043000
     46 C69          3.6040     0.5340    -0.5290 ca         1 600      -0.094000
     47 C70          4.8440     0.9980    -0.1600 ca         1 600      -0.036500
     48 P79          5.1060     2.8320     0.0930 p5         1 600       1.150000
     49 O80          5.5210     2.9820     1.5550 o          1 600      -0.913167
     50 O81          6.1680     3.2200    -0.9340 o          1 600      -0.913167
     51 O82          3.7240     3.4290    -0.2090 o          1 600      -0.913167
     52 O77         10.2820    -0.8120     1.4510 os         1 600      -0.480000
     53 C71          9.4360     0.1490     0.8720 c3         1 600       0.119000
     54 C72         10.1120     0.7100    -0.3750 c3         1 600      -0.072400
     55 C73         11.4990     1.3160    -0.1460 c3         1 600      -0.052700
     56 C74         12.0480     1.8420    -1.4700 c3         1 600      -0.085100
     57 C75         11.4800     2.4240     0.9010 c3         1 600      -0.085100
     58 H1          -8.0800    -3.9760    -1.6840 ha         1 600       0.093000
     59 H2          -6.4560    -4.0840    -3.5520 ha         1 600       0.102500
     60 H3          -4.2290    -3.1250    -3.3100 ha         1 600       0.123500
     61 H5          -5.2050    -1.8870     0.6810 ha         1 600       0.123500
     62 H6          -7.4280    -2.8650     0.4340 ha         1 600       0.102500
     63 H12         -5.8740    -0.0290    -2.2970 ha         1 600       0.091000
     64 H13         -7.7140     1.1640    -1.2350 ha         1 600       0.131500
     65 H15         -5.0730     2.4210     1.8950 ha         1 600       0.131500
     66 H22         -0.2960    -3.7350    -0.5400 ha         1 600       0.098000
     67 H23          1.9640    -3.0520     0.0590 ha         1 600       0.124000
     68 H25          1.5600     0.4310    -2.4010 ha         1 600       0.124000
     69 H321        -2.3540    -2.1410    -3.1090 hc         1 600       0.040700
     70 H322        -2.1990    -3.5090    -2.0250 hc         1 600       0.040700
     71 H351        -2.3510     0.2220    -1.2890 hc         1 600       0.060700
     72 H352        -3.4630    -0.2380    -2.5580 hc         1 600       0.060700
     73 H40         -1.8920    -5.7720     3.6180 ha         1 600       0.091000
     74 H41         -1.0930    -3.4480     3.9710 ha         1 600       0.125000
     75 H44         -3.6370    -4.7330    -0.1630 ha         1 600       0.121000
     76 H45         -3.1280    -6.3840     1.5860 ha         1 600       0.088000
     77 H61          4.1410    -2.8100    -0.7960 ha         1 600       0.070000
     78 H62          8.7560    -2.4810     0.3300 ha         1 600       0.088000
     79 H63          6.5120    -3.3050    -0.3090 ha         1 600       0.073000
     80 H69          2.8080     1.2610    -0.6340 ha         1 600       0.163000
     81 H761         9.9790    -0.2350     3.4240 h1         1 600       0.017700
     82 H762         8.9540    -1.5730     2.8750 h1         1 600       0.017700
     83 H763        10.6820    -1.8410     3.1510 h1         1 600       0.017700
     84 H71          9.2580     0.9730     1.5790 h1         1 600       0.076700
     85 H721        10.1830    -0.0800    -1.1310 hc         1 600       0.070200
     86 H722         9.4440     1.4740    -0.7860 hc         1 600       0.070200
     87 H73         12.1660     0.5230     0.2050 hc         1 600       0.027700
     88 H741        12.0740     1.0620    -2.2330 hc         1 600       0.025700
     89 H742        11.4280     2.6570    -1.8510 hc         1 600       0.025700
     90 H743        13.0630     2.2250    -1.3550 hc         1 600       0.025700
     91 H751        11.1960     2.0570     1.8890 hc         1 600       0.025700
     92 H752        12.4650     2.8840     1.0000 hc         1 600       0.025700
     93 H753        10.7750     3.2120     0.6240 hc         1 600       0.025700
     94 H10         -3.2410     1.2310     0.8230 ha         1 600       0.091000
     95 C76          9.9490    -1.1230     2.7830 c3         1 600       0.155900
     96 H20         -0.7090    -0.2450    -2.9820 ha         1 600       0.098000
@<TRIPOS>BOND
     1     1     2 ar  
     2     1     6 ar  
     3     1    58 1   
     4     2     3 ar  
     5     2    59 1   
     6     3     4 ar  
     7     3    60 1   
     8     4     5 ar  
     9     4    19 1   
    10     5     6 ar  
    11     5    61 1   
    12     6    62 1   
    13     7     8 ar  
    14     7    12 ar  
    15     7    94 1   
    16     8     9 ar  
    17     8    22 1   
    18     9    10 ar  
    19     9    63 1   
    20    10    11 ar  
    21    10    64 1   
    22    11    12 ar  
    23    11    31 1   
    24    12    65 1   
    25    13    14 ar  
    26    13    18 ar  
    27    13    96 1   
    28    14    15 ar  
    29    14    21 1   
    30    15    16 ar  
    31    15    66 1   
    32    16    17 ar  
    33    16    67 1   
    34    17    18 ar  
    35    17    45 1   
    36    18    68 1   
    37    19    20 1   
    38    19    21 1   
    39    19    22 1   
    40    20    26 1   
    41    20    30 1   
    42    21    69 1   
    43    21    70 1   
    44    22    71 1   
    45    22    72 1   
    46    23    24 ar  
    47    23    28 ar  
    48    23    73 1   
    49    24    25 ar  
    50    24    74 1   
    51    25    26 ar  
    52    25    29 1   
    53    26    27 ar  
    54    27    28 ar  
    55    27    75 1   
    56    28    76 1   
    57    29    30 2   
    58    31    32 1   
    59    31    33 1   
    60    31    34 1   
    61    34    35 1   
    62    34    36 1   
    63    34    37 1   
    64    38    41 ar  
    65    38    45 ar  
    66    38    77 1   
    67    39    40 ar  
    68    39    44 ar  
    69    39    78 1   
    70    40    41 ar  
    71    40    79 1   
    72    41    42 ar  
    73    42    43 ar  
    74    42    47 ar  
    75    43    44 ar  
    76    44    53 1   
    77    45    46 ar  
    78    46    47 ar  
    79    46    80 1   
    80    47    48 1   
    81    48    49 1   
    82    48    50 1   
    83    48    51 1   
    84    52    53 1   
    85    52    95 1   
    86    53    54 1   
    87    53    84 1   
    88    54    55 1   
    89    54    85 1   
    90    54    86 1   
    91    55    56 1   
    92    55    57 1   
    93    55    87 1   
    94    56    88 1   
    95    56    89 1   
    96    56    90 1   
    97    57    91 1   
    98    57    92 1   
    99    57    93 1   
   100    81    95 1   
   101    82    95 1   
   102    83    95 1   
@<TRIPOS>SUBSTRUCTURE
     1 600         1 TEMP              0 ****  ****    0 ROOT
