@<TRIPOS>MOLECULE
600
   96   102     1     0     0
SMALL
No Charge or Current Charge


@<TRIPOS>ATOM
      1 C1          -7.0930    -3.7110    -1.9190 ca         1 600      -0.118000
      2 C2          -6.1640    -3.5110    -2.9480 ca         1 600      -0.119000
      3 C3          -4.9350    -2.8810    -2.6840 ca         1 600      -0.081000
      4 C4          -4.6040    -2.4470    -1.3740 ca         1 600      -0.081300
      5 C5          -5.5700    -2.6420    -0.3530 ca         1 600      -0.081000
      6 C6          -6.7960    -3.2720    -0.6220 ca         1 600      -0.119000
      7 C10         -4.5650     1.1590     0.5840 ca         1 600      -0.119500
      8 C11         -4.6910     0.4490    -0.6250 ca         1 600      -0.149300
      9 C12         -5.9560     0.3830    -1.2420 ca         1 600      -0.119500
     10 C13         -7.0810     0.9690    -0.6370 ca         1 600      -0.085000
     11 C14         -6.9630     1.6490     0.5930 ca         1 600      -0.041300
     12 C15         -5.6890     1.7480     1.1900 ca         1 600      -0.085000
     13 C20         -0.2000    -0.5400    -2.1540 ca         1 600      -0.110500
     14 C21         -0.6980    -1.7580    -1.6560 ca         1 600      -0.118300
     15 C22          0.1330    -2.5560    -0.8490 ca         1 600      -0.110500
     16 C23          1.4320    -2.1310    -0.5230 ca         1 600      -0.101000
     17 C24          1.9440    -0.9000    -1.0030 cp         1 600       0.014000
     18 C25          1.1000    -0.1160    -1.8280 ca         1 600      -0.101000
     19 C30         -3.2550    -1.7330    -1.0550 c3         1 600       0.163300
     20 N31         -2.8200    -2.0360     0.3510 na         1 600       0.088600
     21 C32         -2.1110    -2.2270    -2.0170 c3         1 600      -0.032100
     22 C35         -3.4680    -0.1900    -1.2980 c3         1 600      -0.004100
     23 C40         -2.1830    -5.4610     2.5370 ca         1 600      -0.164000
     24 C41         -1.8900    -4.1540     2.9860 ca         1 600      -0.028000
     25 C42         -2.1610    -3.0780     2.1270 ca         1 600       0.016400
     26 C43         -2.6970    -3.2890     0.8940 ca         1 600      -0.084200
     27 C44         -2.9990    -4.5720     0.4060 ca         1 600      -0.096000
     28 C45         -2.7350    -5.6690     1.2510 ca         1 600      -0.116000
     29 N46         -1.9470    -1.7230     2.3440 nc         1 600      -0.222400
     30 N47         -2.3350    -1.0870     1.2370 nd         1 600      -0.090400
     31 C52         -8.1950     2.2810     1.2590 c3         1 600      -0.053700
     32 F53         -9.3110     1.5470     1.0040 f          1 600      -0.164500
     33 F54         -8.0690     2.2780     2.6130 f          1 600      -0.164500
     34 P55         -8.5110     4.0670     0.6930 p5         1 600       1.269500
     35 O56         -7.3310     4.9220     1.0270 o          1 600      -0.904167
     36 O57         -8.7430     4.0980    -0.7840 o          1 600      -0.904167
     37 O58         -9.7200     4.6100     1.3870 o          1 600      -0.904167
     38 C61          4.3860    -1.3800    -0.5180 ca         1 600      -0.158000
     39 C62          7.9950    -1.4990     0.2480 ca         1 600      -0.186000
     40 C63          6.7010    -1.9260    -0.0710 ca         1 600      -0.102000
     41 C64          5.6880    -0.9600    -0.1970 ca         1 600      -0.099000
     42 C65          5.9930     0.4170    -0.0010 ca         1 600       0.311000
     43 N66          7.2600     0.8000     0.3090 nb         1 600      -0.549000
     44 C67          8.2370    -0.1270     0.4340 ca         1 600       0.261300
     45 C68          3.3320    -0.4520    -0.6590 cp         1 600      -0.043000
     46 C69          3.6370     0.9150    -0.4640 ca         1 600      -0.094000
     47 C70          4.9420     1.3540    -0.1410 ca         1 600      -0.036500
     48 P79          5.2200     3.1630     0.0920 p5         1 600       1.150000
     49 O80          5.7130     3.4290     1.4770 o          1 600      -0.913167
     50 O81          6.2320     3.6540    -0.8910 o          1 600      -0.913167
     51 O82          3.9410     3.9040    -0.1180 o          1 600      -0.913167
     52 O77         10.1870    -0.3130     1.9240 os         1 600      -0.480000
     53 C71          9.6450     0.3930     0.7810 c3         1 600       0.119000
     54 C72         10.6330     0.2050    -0.4010 c3         1 600      -0.072400
     55 C73         12.0690     0.7620    -0.1780 c3         1 600      -0.052700
     56 C74         12.9900     0.4000    -1.3660 c3         1 600      -0.085100
     57 C75         12.0890     2.2860     0.0860 c3         1 600      -0.085100
     58 H1          -8.0440    -4.1970    -2.1270 ha         1 600       0.093000
     59 H2          -6.3960    -3.8390    -3.9590 ha         1 600       0.102500
     60 H3          -4.2570    -2.7330    -3.5180 ha         1 600       0.123500
     61 H5          -5.3840    -2.2930     0.6600 ha         1 600       0.123500
     62 H6          -7.5200    -3.4120     0.1780 ha         1 600       0.102500
     63 H12         -6.0740    -0.1340    -2.1910 ha         1 600       0.091000
     64 H13         -8.0470     0.8940    -1.1300 ha         1 600       0.131500
     65 H15         -5.5640     2.2870     2.1250 ha         1 600       0.131500
     66 H22         -0.2260    -3.5080    -0.4650 ha         1 600       0.098000
     67 H23          2.0430    -2.7590     0.1190 ha         1 600       0.124000
     68 H25          1.4620     0.8250    -2.2360 ha         1 600       0.124000
     69 H321        -2.3200    -1.9030    -3.0420 hc         1 600       0.040700
     70 H322        -2.1230    -3.3230    -2.0510 hc         1 600       0.040700
     71 H351        -2.5640     0.3580    -1.0090 hc         1 600       0.060700
     72 H352        -3.5590    -0.0260    -2.3790 hc         1 600       0.060700
     73 H40         -1.9810    -6.3110     3.1840 ha         1 600       0.091000
     74 H41         -1.4620    -3.9840     3.9710 ha         1 600       0.125000
     75 H44         -3.4230    -4.7280    -0.5820 ha         1 600       0.121000
     76 H45         -2.9560    -6.6780     0.9130 ha         1 600       0.088000
     77 H61          4.1930    -2.4380    -0.6740 ha         1 600       0.070000
     78 H62          8.8000    -2.2210     0.3560 ha         1 600       0.088000
     79 H63          6.4920    -2.9830    -0.2170 ha         1 600       0.073000
     80 H69          2.8420     1.6500    -0.5510 ha         1 600       0.163000
     81 H761         9.4920     0.9810     3.4200 h1         1 600       0.017700
     82 H762         8.4610    -0.4400     3.1150 h1         1 600       0.017700
     83 H763         9.9990    -0.6270     3.9820 h1         1 600       0.017700
     84 H71          9.5690     1.4660     1.0020 h1         1 600       0.076700
     85 H721        10.6990    -0.8650    -0.6310 hc         1 600       0.070200
     86 H722        10.2020     0.6820    -1.2900 hc         1 600       0.070200
     87 H73         12.4890     0.2710     0.7080 hc         1 600       0.027700
     88 H741        13.0210    -0.6860    -1.5160 hc         1 600       0.025700
     89 H742        12.6330     0.8650    -2.2930 hc         1 600       0.025700
     90 H743        14.0140     0.7440    -1.1820 hc         1 600       0.025700
     91 H751        11.5580     2.5360     1.0110 hc         1 600       0.025700
     92 H752        13.1200     2.6460     0.1920 hc         1 600       0.025700
     93 H753        11.6200     2.8330    -0.7420 hc         1 600       0.025700
     94 H10         -3.5940     1.2650     1.0610 ha         1 600       0.091000
     95 C76          9.4990    -0.0870     3.1680 c3         1 600       0.155900
     96 H20         -0.8170     0.0820    -2.7990 ha         1 600       0.098000
@<TRIPOS>BOND
     1     1     2 ar  
     2     1     6 ar  
     3     1    58 1   
     4     2     3 ar  
     5     2    59 1   
     6     3     4 ar  
     7     3    60 1   
     8     4     5 ar  
     9     4    19 1   
    10     5     6 ar  
    11     5    61 1   
    12     6    62 1   
    13     7     8 ar  
    14     7    12 ar  
    15     7    94 1   
    16     8     9 ar  
    17     8    22 1   
    18     9    10 ar  
    19     9    63 1   
    20    10    11 ar  
    21    10    64 1   
    22    11    12 ar  
    23    11    31 1   
    24    12    65 1   
    25    13    14 ar  
    26    13    18 ar  
    27    13    96 1   
    28    14    15 ar  
    29    14    21 1   
    30    15    16 ar  
    31    15    66 1   
    32    16    17 ar  
    33    16    67 1   
    34    17    18 ar  
    35    17    45 1   
    36    18    68 1   
    37    19    20 1   
    38    19    21 1   
    39    19    22 1   
    40    20    26 1   
    41    20    30 1   
    42    21    69 1   
    43    21    70 1   
    44    22    71 1   
    45    22    72 1   
    46    23    24 ar  
    47    23    28 ar  
    48    23    73 1   
    49    24    25 ar  
    50    24    74 1   
    51    25    26 ar  
    52    25    29 1   
    53    26    27 ar  
    54    27    28 ar  
    55    27    75 1   
    56    28    76 1   
    57    29    30 2   
    58    31    32 1   
    59    31    33 1   
    60    31    34 1   
    61    34    35 1   
    62    34    36 1   
    63    34    37 1   
    64    38    41 ar  
    65    38    45 ar  
    66    38    77 1   
    67    39    40 ar  
    68    39    44 ar  
    69    39    78 1   
    70    40    41 ar  
    71    40    79 1   
    72    41    42 ar  
    73    42    43 ar  
    74    42    47 ar  
    75    43    44 ar  
    76    44    53 1   
    77    45    46 ar  
    78    46    47 ar  
    79    46    80 1   
    80    47    48 1   
    81    48    49 1   
    82    48    50 1   
    83    48    51 1   
    84    52    53 1   
    85    52    95 1   
    86    53    54 1   
    87    53    84 1   
    88    54    55 1   
    89    54    85 1   
    90    54    86 1   
    91    55    56 1   
    92    55    57 1   
    93    55    87 1   
    94    56    88 1   
    95    56    89 1   
    96    56    90 1   
    97    57    91 1   
    98    57    92 1   
    99    57    93 1   
   100    81    95 1   
   101    82    95 1   
   102    83    95 1   
@<TRIPOS>SUBSTRUCTURE
     1 600         1 TEMP              0 ****  ****    0 ROOT
