@<TRIPOS>MOLECULE
601
   26    26     1     0     0
SMALL
No Charge or Current Charge


@<TRIPOS>ATOM
      1 C4           0.1430     1.3670     0.3140 ca         1 601      -0.022500
      2 C5           0.9860     0.2640     0.0660 ca         1 601      -0.219600
      3 C6           2.4900     0.4530     0.1070 c          1 601       0.642700
      4 N1           3.2740    -0.6790    -0.1460 ns         1 601      -0.412300
      5 C7           0.3900    -0.9880    -0.2150 ca         1 601      -0.022500
      6 C8          -1.0090    -1.1200    -0.2430 ca         1 601      -0.209500
      7 N2           4.7370    -0.7110    -0.1550 n8         1 601      -0.717200
      8 O            2.9990     1.5410     0.3490 o          1 601      -0.573100
      9 C3          -1.2550     1.2250     0.2830 ca         1 601      -0.209500
     10 C2          -1.8480    -0.0190     0.0050 ca         1 601       0.363000
     11 N           -3.2590    -0.1600    -0.0260 nh         1 601      -0.828400
     12 C1          -4.1430     0.9760    -0.3800 c3         1 601       0.219600
     13 C           -3.9150    -1.4490     0.2970 c3         1 601       0.219600
     14 H1           0.5660     2.3450     0.5370 ha         1 601       0.116500
     15 H2           2.7650    -1.5400    -0.3380 hn         1 601       0.296500
     16 H3           0.9920    -1.8700    -0.4170 ha         1 601       0.116500
     17 H4          -1.4360    -2.0920    -0.4730 ha         1 601       0.114000
     18 H5           5.1040    -1.3750     0.5450 hn         1 601       0.393000
     19 H6           5.1030    -1.0150    -1.0700 hn         1 601       0.393000
     20 H7          -1.8720     2.0930     0.4910 ha         1 601       0.114000
     21 H8          -3.6770     1.6020    -1.1530 h1         1 601       0.037867
     22 H9          -5.1010     0.6170    -0.7790 h1         1 601       0.037867
     23 H10         -4.3450     1.5970     0.5040 h1         1 601       0.037867
     24 H11         -3.3680    -1.9740     1.0920 h1         1 601       0.037867
     25 H12         -4.9410    -1.2870     0.6540 h1         1 601       0.037867
     26 H13         -3.9540    -2.0950    -0.5910 h1         1 601       0.037867
@<TRIPOS>BOND
     1     1     2 ar  
     2     1     9 ar  
     3     1    14 1   
     4     2     3 1   
     5     2     5 ar  
     6     3     4 1   
     7     3     8 2   
     8     4     7 1   
     9     4    15 1   
    10     5     6 ar  
    11     5    16 1   
    12     6    10 ar  
    13     6    17 1   
    14     7    18 1   
    15     7    19 1   
    16     9    10 ar  
    17     9    20 1   
    18    10    11 1   
    19    11    12 1   
    20    11    13 1   
    21    12    21 1   
    22    12    22 1   
    23    12    23 1   
    24    13    24 1   
    25    13    25 1   
    26    13    26 1   
@<TRIPOS>SUBSTRUCTURE
     1 601         1 TEMP              0 ****  ****    0 ROOT
