@<TRIPOS>MOLECULE
601
   26    26     1     0     0
SMALL
abcg2


@<TRIPOS>ATOM
      1 C4           0.1510     1.3200     0.0840 ca         1 601      -0.022500
      2 C5           0.9730     0.1950     0.1440 ca         1 601      -0.219600
      3 C6           2.4450     0.3900     0.2060 c          1 601       0.642700
      4 N1           3.1810    -0.6590    -0.2190 ns         1 601      -0.412300
      5 C7           0.3490    -1.0530     0.1780 ca         1 601      -0.022500
      6 C8          -1.0260    -1.1790     0.1380 ca         1 601      -0.209500
      7 N2           4.5630    -0.6220    -0.1880 n8         1 601      -0.717200
      8 O            2.9370     1.4360     0.6070 o          1 601      -0.573100
      9 C3          -1.2230     1.2160     0.0300 ca         1 601      -0.209500
     10 C2          -1.8590    -0.0440     0.0580 ca         1 601       0.363000
     11 N           -3.2130    -0.1580     0.0180 nh         1 601      -0.828400
     12 C1          -4.0340     1.0210    -0.1270 c3         1 601       0.219600
     13 C           -3.8260    -1.4660    -0.0280 c3         1 601       0.219600
     14 H1           0.5950     2.3070     0.0660 ha         1 601       0.116500
     15 H2           2.7270    -1.4350    -0.6780 hn         1 601       0.296500
     16 H3           0.9300    -1.9630     0.2660 ha         1 601       0.116500
     17 H4          -1.4480    -2.1730     0.1780 ha         1 601       0.114000
     18 H5           4.9000    -1.4440     0.2960 hn         1 601       0.393000
     19 H6           4.9190    -0.6630    -1.1350 hn         1 601       0.393000
     20 H7          -1.8070     2.1230    -0.0330 ha         1 601       0.114000
     21 H8          -3.8410     1.5500    -1.0650 h1         1 601       0.037867
     22 H9          -5.0810     0.7340    -0.1170 h1         1 601       0.037867
     23 H10         -3.8790     1.7270     0.6920 h1         1 601       0.037867
     24 H11         -3.5760    -2.0630     0.8530 h1         1 601       0.037867
     25 H12         -4.9060    -1.3570    -0.0530 h1         1 601       0.037867
     26 H13         -3.5260    -2.0330    -0.9140 h1         1 601       0.037867
@<TRIPOS>BOND
     1     1     2 ar  
     2     1     9 ar  
     3     1    14 1   
     4     2     3 1   
     5     2     5 ar  
     6     3     4 1   
     7     3     8 2   
     8     4     7 1   
     9     4    15 1   
    10     5     6 ar  
    11     5    16 1   
    12     6    10 ar  
    13     6    17 1   
    14     7    18 1   
    15     7    19 1   
    16     9    10 ar  
    17     9    20 1   
    18    10    11 1   
    19    11    12 1   
    20    11    13 1   
    21    12    21 1   
    22    12    22 1   
    23    12    23 1   
    24    13    24 1   
    25    13    25 1   
    26    13    26 1   
@<TRIPOS>SUBSTRUCTURE
     1 601         1 TEMP              0 ****  ****    0 ROOT
