@<TRIPOS>MOLECULE
602
   42    43     1     0     0
SMALL
abcg2


@<TRIPOS>ATOM
      1 OAL         -3.4530   -24.7140    23.3560 o          1 602      -0.713533
      2 SAI         -3.8560   -25.8690    24.1460 s6         1 602       1.523300
      3 OAJ         -3.0300   -26.1240    25.3170 o          1 602      -0.713533
      4 OAK         -5.2870   -25.9530    24.4100 o          1 602      -0.713533
      5 OAH         -3.5260   -27.0660    23.0560 os         1 602      -0.430000
      6 NAG         -3.8230   -28.3770    23.6000 n7         1 602      -0.541900
      7 CAE         -2.7300   -29.3040    23.2920 c6         1 602       0.134500
      8 CAF         -1.4590   -29.0200    24.0990 c6         1 602      -0.055400
      9 CB          -0.5690   -27.9410    23.4810 c6         1 602      -0.076400
     10 CAD         -2.4050   -29.4800    21.8010 c6         1 602       0.091000
     11 N           -1.4990   -28.4570    21.2880 n          1 602      -0.383800
     12 CAM         -1.8480   -27.6600    20.2650 c          1 602       0.625900
     13 OAN         -1.1640   -26.7530    19.7970 o          1 602      -0.617100
     14 CA          -0.2550   -28.2440    22.0070 c6         1 602       0.030700
     15 C            0.6950   -29.4340    21.7860 c          1 602       0.592100
     16 O            0.4560   -30.3500    21.0190 o          1 602      -0.588100
     17 NAQ          1.8400   -29.3720    22.5220 ns         1 602      -0.375500
     18 NAR          2.8280   -30.3150    22.3760 ns         1 602      -0.379500
     19 CAS          3.7070   -30.2790    21.3340 c          1 602       0.609100
     20 OAU          3.7120   -29.3750    20.5120 o          1 602      -0.555100
     21 CAT          4.6650   -31.4410    21.2980 cy         1 602      -0.192700
     22 CAV          4.6980   -32.1870    19.9350 cy         1 602       0.150800
     23 NAW          6.0040   -31.5580    19.6070 n6         1 602      -0.825400
     24 CAX          6.1360   -31.0520    21.0000 cy         1 602       0.150800
     25 H1          -4.6420   -28.6610    23.0680 hn         1 602       0.396000
     26 H2          -3.1420   -30.2600    23.6320 h1         1 602       0.044700
     27 H3          -1.7350   -28.7380    25.1150 hc         1 602       0.051200
     28 H4          -0.8920   -29.9530    24.1640 hc         1 602       0.051200
     29 H5           0.3520   -27.8460    24.0560 hc         1 602       0.069200
     30 H6          -1.0660   -26.9740    23.5150 hc         1 602       0.069200
     31 H7          -3.3190   -29.4550    21.2080 h1         1 602       0.047200
     32 H8          -1.9390   -30.4560    21.6620 h1         1 602       0.047200
     33 H9          -2.8450   -27.8990    19.8670 h5         1 602       0.012200
     34 H10          0.2280   -27.3780    21.5530 h1         1 602       0.107700
     35 H11          2.0860   -28.5410    23.0400 hn         1 602       0.340500
     36 H12          2.7910   -31.1080    22.9980 hn         1 602       0.329500
     37 H13          4.5310   -32.0860    22.1640 hc         1 602       0.059700
     38 H14          3.8970   -31.9360    19.2380 h1         1 602       0.057450
     39 H15          4.7390   -33.2710    20.0630 h1         1 602       0.057450
     40 H16          6.7200   -32.2280    19.3540 hn         1 602       0.395000
     41 H18          6.8410   -31.6130    21.6160 h1         1 602       0.057450
     42 H19          6.3660   -29.9880    21.0620 h1         1 602       0.057450
@<TRIPOS>BOND
     1     1     2 1   
     2     2     3 1   
     3     2     4 1   
     4     2     5 1   
     5     5     6 1   
     6     6     7 1   
     7     6    25 1   
     8     7     8 1   
     9     7    10 1   
    10     7    26 1   
    11     8     9 1   
    12     8    27 1   
    13     8    28 1   
    14     9    14 1   
    15     9    29 1   
    16     9    30 1   
    17    10    11 1   
    18    10    31 1   
    19    10    32 1   
    20    11    12 1   
    21    11    14 1   
    22    12    13 2   
    23    12    33 1   
    24    14    15 1   
    25    14    34 1   
    26    15    16 2   
    27    15    17 1   
    28    17    18 1   
    29    17    35 1   
    30    18    19 1   
    31    18    36 1   
    32    19    20 2   
    33    19    21 1   
    34    21    22 1   
    35    21    24 1   
    36    21    37 1   
    37    22    23 1   
    38    22    38 1   
    39    22    39 1   
    40    23    24 1   
    41    23    40 1   
    42    24    41 1   
    43    24    42 1   
@<TRIPOS>SUBSTRUCTURE
     1 602         1 TEMP              0 ****  ****    0 ROOT
