@<TRIPOS>MOLECULE
602
   42    43     1     0     0
SMALL
No Charge or Current Charge


@<TRIPOS>ATOM
      1 OAL         -3.7260   -24.6380    23.2640 o          1 602      -0.713533
      2 SAI         -3.9790   -25.8410    24.0730 s6         1 602       1.523300
      3 OAJ         -3.0960   -25.9740    25.2450 o          1 602      -0.713533
      4 OAK         -5.4030   -26.0800    24.3670 o          1 602      -0.713533
      5 OAH         -3.5420   -27.1100    23.0630 os         1 602      -0.430000
      6 NAG         -3.7270   -28.5160    23.5650 n7         1 602      -0.541900
      7 CAE         -2.5730   -29.4070    23.2510 c6         1 602       0.134500
      8 CAF         -1.2750   -29.0540    24.0430 c6         1 602      -0.055400
      9 CB          -0.4370   -27.9230    23.3820 c6         1 602      -0.076400
     10 CAD         -2.2870   -29.5490    21.7230 c6         1 602       0.091000
     11 N           -1.4780   -28.4290    21.1790 n          1 602      -0.383800
     12 CAM         -2.0080   -27.5280    20.2390 c          1 602       0.625900
     13 OAN         -1.3830   -26.5610    19.8150 o          1 602      -0.617100
     14 CA          -0.1710   -28.2160    21.8740 c6         1 602       0.030700
     15 C            0.8990   -29.3100    21.5610 c          1 602       0.592100
     16 O            0.9960   -29.8130    20.4460 o          1 602      -0.588100
     17 NAQ          1.7700   -29.6690    22.5850 ns         1 602      -0.375500
     18 NAR          2.8940   -30.5380    22.4020 ns         1 602      -0.379500
     19 CAS          4.0480   -30.1840    21.7120 c          1 602       0.609100
     20 OAU          4.1970   -29.0070    21.3980 o          1 602      -0.555100
     21 CAT          4.9500   -31.4700    21.5750 cy         1 602      -0.192700
     22 CAV          4.2540   -31.9910    20.2710 cy         1 602       0.150800
     23 NAW          5.6740   -32.1540    19.8030 n6         1 602      -0.825400
     24 CAX          6.0380   -30.9230    20.5860 cy         1 602       0.150800
     25 H1          -4.5870   -28.8590    23.1140 hn         1 602       0.396000
     26 H2          -2.8810   -30.4040    23.6010 h1         1 602       0.044700
     27 H3          -1.5290   -28.7790    25.0760 hc         1 602       0.051200
     28 H4          -0.6570   -29.9590    24.1190 hc         1 602       0.051200
     29 H5           0.4980   -27.7580    23.9330 hc         1 602       0.069200
     30 H6          -0.9810   -26.9740    23.4640 hc         1 602       0.069200
     31 H7          -3.2350   -29.6380    21.1730 h1         1 602       0.047200
     32 H8          -1.7350   -30.4840    21.5550 h1         1 602       0.047200
     33 H9          -3.0340   -27.7880    19.9180 h5         1 602       0.012200
     34 H10          0.2970   -27.3080    21.4700 h1         1 602       0.107700
     35 H11          1.7030   -29.1840    23.4760 hn         1 602       0.340500
     36 H12          2.7700   -31.5150    22.6560 hn         1 602       0.329500
     37 H13          5.1770   -32.1180    22.4270 hc         1 602       0.059700
     38 H14          3.6660   -31.2640    19.6910 h1         1 602       0.057450
     39 H15          3.6740   -32.9140    20.3950 h1         1 602       0.057450
     40 H16          6.1340   -33.0050    20.1480 hn         1 602       0.395000
     41 H18          7.0550   -30.8940    20.9970 h1         1 602       0.057450
     42 H19          5.8380   -29.9870    20.0480 h1         1 602       0.057450
@<TRIPOS>BOND
     1     1     2 1   
     2     2     3 1   
     3     2     4 1   
     4     2     5 1   
     5     5     6 1   
     6     6     7 1   
     7     6    25 1   
     8     7     8 1   
     9     7    10 1   
    10     7    26 1   
    11     8     9 1   
    12     8    27 1   
    13     8    28 1   
    14     9    14 1   
    15     9    29 1   
    16     9    30 1   
    17    10    11 1   
    18    10    31 1   
    19    10    32 1   
    20    11    12 1   
    21    11    14 1   
    22    12    13 2   
    23    12    33 1   
    24    14    15 1   
    25    14    34 1   
    26    15    16 2   
    27    15    17 1   
    28    17    18 1   
    29    17    35 1   
    30    18    19 1   
    31    18    36 1   
    32    19    20 2   
    33    19    21 1   
    34    21    22 1   
    35    21    24 1   
    36    21    37 1   
    37    22    23 1   
    38    22    38 1   
    39    22    39 1   
    40    23    24 1   
    41    23    40 1   
    42    24    41 1   
    43    24    42 1   
@<TRIPOS>SUBSTRUCTURE
     1 602         1 TEMP              0 ****  ****    0 ROOT
