@<TRIPOS>MOLECULE
603
   62    65     1     0     0
SMALL
bcc


@<TRIPOS>ATOM
      1 C1           7.4080     3.8600    -1.4780 cg         1 603       0.221800
      2 C2          -9.6910     3.1480     0.6620 ca         1 603      -0.121000
      3 C3         -10.0500     1.9820    -0.0010 ca         1 603      -0.127500
      4 C4          -8.3890     3.3030     1.1190 ca         1 603      -0.127500
      5 C5          -6.2430    -2.2990    -0.0610 ca         1 603      -0.135000
      6 C6           7.0770     1.4460    -1.3950 ca         1 603      -0.112500
      7 C7           6.4700     2.8110     0.5150 ca         1 603      -0.112500
      8 C8          -9.1150     0.9780    -0.2040 ca         1 603      -0.114500
      9 C9          -7.4540     2.2990     0.9150 ca         1 603      -0.114500
     10 C10         -7.1770    -1.2950     0.1330 ca         1 603      -0.097000
     11 C11         -4.9200    -1.9820    -0.3320 ca         1 603      -0.106000
     12 C12          6.6660     0.3130    -0.7140 ca         1 603      -0.039000
     13 C13          6.0600     1.6790     1.1940 ca         1 603      -0.039000
     14 C14         -5.4820     0.3550    -0.2470 ca         1 603      -0.068000
     15 C15          6.9780     2.6910    -0.7780 ca         1 603       0.038000
     16 C16         -7.8030     1.1210     0.2520 cp         1 603      -0.041000
     17 C17         -6.8090     0.0490     0.0430 cp         1 603      -0.036000
     18 C18         -4.5330    -0.6480    -0.4190 ca         1 603      -0.154600
     19 C19          6.1610     0.4410     0.5730 ca         1 603      -0.289500
     20 C20         -3.1300    -0.2400    -0.7360 c          1 603       0.681700
     21 C21         -0.7620    -0.8870    -0.5190 c6         1 603       0.055700
     22 C22         -0.1430    -2.0450    -1.3080 c6         1 603       0.103100
     23 C23          1.3600    -1.8310    -1.4420 c6         1 603       0.127100
     24 C24          1.9730    -1.6150    -0.0610 c6         1 603       0.146100
     25 C25         -0.0430    -0.6850     0.8150 c6         1 603       0.328900
     26 C26          3.4460    -1.2590    -0.1490 c3         1 603       0.212800
     27 N27          7.7550     4.8020    -2.0400 n1         1 603      -0.340800
     28 N28         -2.1740    -1.0950    -0.3190 ns         1 603      -0.574900
     29 N29          3.9700    -1.0720     1.1980 n7         1 603      -0.818100
     30 O30         -2.8920     0.8010    -1.3280 o          1 603      -0.588100
     31 O31          6.1760    -2.1620     0.7850 o          1 603      -0.600800
     32 O32          5.7840    -0.7820     2.8580 o          1 603      -0.600800
     33 O33          1.3330    -0.5320     0.5900 os         1 603      -0.443600
     34 O34         -0.6760    -2.1140    -2.6090 oh         1 603      -0.596800
     35 O35          1.9970    -2.9380    -2.0250 oh         1 603      -0.592800
     36 O36         -0.3370    -1.7680     1.6340 oh         1 603      -0.619800
     37 S37          5.5890    -1.0060     1.4380 sy         1 603       1.299200
     38 H1         -10.4230     3.9290     0.8230 ha         1 603       0.132000
     39 H2         -11.0600     1.8550    -0.3680 ha         1 603       0.132500
     40 H3          -8.1000     4.2050     1.6430 ha         1 603       0.132500
     41 H4          -6.5450    -3.3360     0.0050 ha         1 603       0.137000
     42 H6           6.3990     3.7810     0.9870 ha         1 603       0.150500
     43 H7          -9.4060     0.0830    -0.7390 ha         1 603       0.131500
     44 H8          -6.4490     2.4250     1.2970 ha         1 603       0.131500
     45 H9          -8.1990    -1.5610     0.3740 ha         1 603       0.138000
     46 H10         -4.2100    -2.7830    -0.4980 ha         1 603       0.129000
     47 H11          6.7530    -0.6540    -1.1890 ha         1 603       0.159500
     48 H12          5.6740     1.7750     2.2000 ha         1 603       0.159500
     49 H13         -5.1800     1.3900    -0.3500 ha         1 603       0.156000
     50 H14         -0.6420     0.0280    -1.1000 h1         1 603       0.109700
     51 H15         -0.3130    -2.9890    -0.7710 h1         1 603       0.057700
     52 H16          1.5220    -0.9190    -2.0380 h1         1 603       0.053700
     53 H17          1.8750    -2.5360     0.5280 h1         1 603       0.081700
     54 H18         -0.3620     0.2600     1.2680 h2         1 603       0.077700
     55 H19          3.9780    -2.0810    -0.6240 h1         1 603       0.069200
     56 H20          3.5760    -0.3650    -0.7710 h1         1 603       0.069200
     57 H21         -2.4380    -1.8530     0.2930 hn         1 603       0.326500
     58 H22          3.4710    -0.3800     1.7480 hn         1 603       0.437800
     59 H23         -1.5480    -2.5150    -2.5660 ho         1 603       0.418000
     60 H24          1.6290    -3.0680    -2.9050 ho         1 603       0.428000
     61 H25         -0.1350    -1.5460     2.5490 ho         1 603       0.425000
     62 H5           7.4760     1.3600    -2.3960 ha         1 603       0.150500
@<TRIPOS>BOND
     1     1    15 1   
     2     1    27 3   
     3     2     3 ar  
     4     2     4 ar  
     5     2    38 1   
     6     3     8 ar  
     7     3    39 1   
     8     4     9 ar  
     9     4    40 1   
    10     5    10 ar  
    11     5    11 ar  
    12     5    41 1   
    13     6    12 ar  
    14     6    15 ar  
    15     6    62 1   
    16     7    13 ar  
    17     7    15 ar  
    18     7    42 1   
    19     8    16 ar  
    20     8    43 1   
    21     9    16 ar  
    22     9    44 1   
    23    10    17 ar  
    24    10    45 1   
    25    11    18 ar  
    26    11    46 1   
    27    12    19 ar  
    28    12    47 1   
    29    13    19 ar  
    30    13    48 1   
    31    14    17 ar  
    32    14    18 ar  
    33    14    49 1   
    34    16    17 1   
    35    18    20 1   
    36    19    37 1   
    37    20    28 1   
    38    20    30 2   
    39    21    22 1   
    40    21    25 1   
    41    21    28 1   
    42    21    50 1   
    43    22    23 1   
    44    22    34 1   
    45    22    51 1   
    46    23    24 1   
    47    23    35 1   
    48    23    52 1   
    49    24    26 1   
    50    24    33 1   
    51    24    53 1   
    52    25    33 1   
    53    25    36 1   
    54    25    54 1   
    55    26    29 1   
    56    26    55 1   
    57    26    56 1   
    58    28    57 1   
    59    29    37 1   
    60    29    58 1   
    61    31    37 2   
    62    32    37 2   
    63    34    59 1   
    64    35    60 1   
    65    36    61 1   
@<TRIPOS>SUBSTRUCTURE
     1 603         1 TEMP              0 ****  ****    0 ROOT
