@<TRIPOS>MOLECULE
603
   62    65     1     0     0
SMALL
No Charge or Current Charge


@<TRIPOS>ATOM
      1 C1           8.9760    -0.1870    -2.6940 cg         1 603       0.311000
      2 C2         -10.6150     1.7100     1.8060 ca         1 603      -0.103000
      3 C3         -10.7170     1.0240     0.5850 ca         1 603      -0.109500
      4 C4          -9.3810     1.7660     2.4740 ca         1 603      -0.109500
      5 C5          -6.1160    -2.0790    -1.1540 ca         1 603      -0.117000
      6 C6           7.8340    -1.2110    -0.7610 ca         1 603      -0.094500
      7 C7           7.5310     1.1610    -1.2160 ca         1 603      -0.094500
      8 C8          -9.5870     0.3950     0.0340 ca         1 603      -0.096500
      9 C9          -8.2510     1.1380     1.9210 ca         1 603      -0.096500
     10 C10         -7.2440    -1.4530    -0.6040 ca         1 603      -0.079000
     11 C11         -4.8440    -1.5010    -1.0160 ca         1 603      -0.088000
     12 C12          6.9870    -1.1070     0.3560 ca         1 603      -0.021000
     13 C13          6.6830     1.2700    -0.1000 ca         1 603      -0.021000
     14 C14         -5.8350     0.3390     0.2300 ca         1 603      -0.050000
     15 C15          8.1100    -0.0790    -1.5510 ca         1 603       0.038000
     16 C16         -8.3300     0.4390     0.6890 cp         1 603      -0.041000
     17 C17         -7.1270    -0.2310     0.1000 cp         1 603      -0.036000
     18 C18         -4.6860    -0.2790    -0.3190 ca         1 603      -0.154600
     19 C19          6.4090     0.1340     0.6900 ca         1 603      -0.289500
     20 C20         -3.3350     0.3850    -0.1470 c          1 603       0.614700
     21 C21         -0.8350     0.1650    -0.5440 c6         1 603       0.055700
     22 C22          0.0330    -0.3550    -1.7280 c6         1 603       0.126300
     23 C23          1.5200     0.0550    -1.5360 c6         1 603       0.150300
     24 C24          2.0250    -0.4670    -0.1590 c6         1 603       0.169300
     25 C25         -0.2210    -0.3140     0.8150 c6         1 603       0.375300
     26 C26          3.4810    -0.0110     0.1520 c3         1 603       0.212800
     27 N27          9.6860    -0.2710    -3.6170 n1         1 603      -0.430000
     28 N28         -2.2490    -0.2650    -0.6900 ns         1 603      -0.507900
     29 N29          3.9100    -0.4090     1.5120 n7         1 603      -0.873300
     30 O30         -3.1980     1.4480     0.4430 o          1 603      -0.588100
     31 O31          5.7640    -0.6780     3.1490 o          1 603      -0.530000
     32 O32          4.9950     1.6570     2.3960 o          1 603      -0.530000
     33 O33          1.1700     0.0460     0.9060 os         1 603      -0.490000
     34 O34         -0.4540     0.1520    -2.9860 oh         1 603      -0.659000
     35 O35          2.3030    -0.4510    -2.6320 oh         1 603      -0.715000
     36 O36         -0.2990    -1.7280     0.9720 oh         1 603      -0.682000
     37 S37          5.3120     0.2560     2.1150 sy         1 603       1.157600
     38 H1         -11.4890     2.1960     2.2340 ha         1 603       0.114000
     39 H2         -11.6710     0.9820     0.0640 ha         1 603       0.114500
     40 H3          -9.3000     2.2940     3.4220 ha         1 603       0.114500
     41 H4          -6.2270    -3.0200    -1.6890 ha         1 603       0.119000
     42 H6           7.7370     2.0420    -1.8200 ha         1 603       0.132500
     43 H7          -9.6860    -0.1190    -0.9190 ha         1 603       0.113500
     44 H8          -7.3100     1.1820     2.4630 ha         1 603       0.113500
     45 H9          -8.2160    -1.9280    -0.7140 ha         1 603       0.120000
     46 H10         -3.9960    -2.0160    -1.4570 ha         1 603       0.111000
     47 H11          6.7780    -1.9930     0.9540 ha         1 603       0.141500
     48 H12          6.2440     2.2370     0.1420 ha         1 603       0.141500
     49 H13         -5.7290     1.2850     0.7550 ha         1 603       0.138000
     50 H14         -0.8020     1.2650    -0.5480 h1         1 603       0.109700
     51 H15         -0.0210    -1.4550    -1.7300 h1         1 603       0.057700
     52 H16          1.5720     1.1550    -1.5220 h1         1 603       0.053700
     53 H17          2.0050    -1.5660    -0.1500 h1         1 603       0.081700
     54 H18         -0.7690     0.1750     1.6360 h2         1 603       0.077700
     55 H19          4.1450    -0.4430    -0.6090 h1         1 603       0.069200
     56 H20          3.5180     1.0820     0.0360 h1         1 603       0.069200
     57 H21         -2.4300    -1.1770    -1.0890 hn         1 603       0.326500
     58 H22          3.2260    -0.0380     2.1700 hn         1 603       0.493000
     59 H23         -1.4360     0.1570    -2.9290 ho         1 603       0.457000
     60 H24          1.7180    -0.3410    -3.4220 ho         1 603       0.527000
     61 H25          0.1860    -1.9160     1.8030 ho         1 603       0.464000
     62 H5           8.2740    -2.1740    -1.0120 ha         1 603       0.132500
@<TRIPOS>BOND
     1     1    15 1   
     2     1    27 3   
     3     2     3 ar  
     4     2     4 ar  
     5     2    38 1   
     6     3     8 ar  
     7     3    39 1   
     8     4     9 ar  
     9     4    40 1   
    10     5    10 ar  
    11     5    11 ar  
    12     5    41 1   
    13     6    12 ar  
    14     6    15 ar  
    15     6    62 1   
    16     7    13 ar  
    17     7    15 ar  
    18     7    42 1   
    19     8    16 ar  
    20     8    43 1   
    21     9    16 ar  
    22     9    44 1   
    23    10    17 ar  
    24    10    45 1   
    25    11    18 ar  
    26    11    46 1   
    27    12    19 ar  
    28    12    47 1   
    29    13    19 ar  
    30    13    48 1   
    31    14    17 ar  
    32    14    18 ar  
    33    14    49 1   
    34    16    17 1   
    35    18    20 1   
    36    19    37 1   
    37    20    28 1   
    38    20    30 2   
    39    21    22 1   
    40    21    25 1   
    41    21    28 1   
    42    21    50 1   
    43    22    23 1   
    44    22    34 1   
    45    22    51 1   
    46    23    24 1   
    47    23    35 1   
    48    23    52 1   
    49    24    26 1   
    50    24    33 1   
    51    24    53 1   
    52    25    33 1   
    53    25    36 1   
    54    25    54 1   
    55    26    29 1   
    56    26    55 1   
    57    26    56 1   
    58    28    57 1   
    59    29    37 1   
    60    29    58 1   
    61    31    37 2   
    62    32    37 2   
    63    34    59 1   
    64    35    60 1   
    65    36    61 1   
@<TRIPOS>SUBSTRUCTURE
     1 603         1 TEMP              0 ****  ****    0 ROOT
