@<TRIPOS>MOLECULE
604
   53    55     1     0     0
SMALL
bcc


@<TRIPOS>ATOM
      1 C1           7.0300     2.6850    -0.0890 ca         1 604      -0.140000
      2 C2           5.6730     2.7130     0.1880 ca         1 604      -0.066000
      3 C3           7.6920     1.4760    -0.2600 ca         1 604      -0.089000
      4 C4           5.6080     0.3070     0.1060 ca         1 604      -0.079000
      5 C5          -6.6280     0.2520    -1.1010 cc         1 604      -0.073300
      6 C6           4.9530     1.5250     0.2710 ca         1 604      -0.144600
      7 C7          -7.2430     0.9990    -0.0520 cc         1 604      -0.283900
      8 C8           6.9690     0.2980    -0.1540 ca         1 604      -0.029900
      9 C9          -6.7580     0.4790     1.1160 cd         1 604       0.302000
     10 C10         -5.8370    -0.6570    -0.4920 cd         1 604      -0.089400
     11 C11          3.4910     1.5990     0.5880 c          1 604       0.688700
     12 C13          1.3340     0.4460     0.3500 c6         1 604       0.091700
     13 C14          1.0970    -0.7360     1.2880 c6         1 604       0.133100
     14 C15         -0.4020    -0.9230     1.5030 c6         1 604       0.084100
     15 C16         -1.1030    -1.0550     0.1490 c6         1 604       0.116100
     16 C17          0.5400     0.2800    -0.9470 c6         1 604       0.330900
     17 C19         -2.6110    -1.1130     0.2950 c3         1 604       0.214800
     18 N20          2.7350     0.6200     0.0630 ns         1 604      -0.556900
     19 N21         -3.2190    -1.2980    -1.0170 n7         1 604      -0.828100
     20 O22         -8.7090     2.6620     0.7490 o          1 604      -0.823300
     21 O23          3.0480     2.5150     1.2630 o          1 604      -0.589100
     22 O24         -8.4580     2.4090    -1.4540 o          1 604      -0.823300
     23 O27         -5.8990    -0.5300     0.8500 os         1 604      -0.330800
     24 O28         -0.8150     0.0740    -0.6590 os         1 604      -0.427600
     25 O29          1.7690    -0.4680     2.4900 oh         1 604      -0.588800
     26 O30         -0.5820    -2.0840     2.2820 oh         1 604      -0.601800
     27 O31          1.1020    -0.7700    -1.6650 oh         1 604      -0.625800
     28 S32         -4.7550    -1.8610    -1.1400 sy         1 604       1.283800
     29 BR           7.8570    -1.3550    -0.3590 br         1 604      -0.100100
     30 H1           7.5850     3.6090    -0.1700 ha         1 604       0.138000
     31 H2           5.1710     3.6600     0.3310 ha         1 604       0.157000
     32 H3           8.7530     1.4650    -0.4660 ha         1 604       0.145000
     33 H4           5.0710    -0.6280     0.2090 ha         1 604       0.151000
     34 H5          -6.7720     0.3830    -2.1610 ha         1 604       0.180000
     35 H6           0.9780     1.3570     0.8360 h1         1 604       0.108700
     36 H7           1.4900    -1.6500     0.8170 h1         1 604       0.054700
     37 H8          -0.7900    -0.0340     2.0190 h1         1 604       0.058700
     38 H9          -0.7680    -1.9800    -0.3400 h1         1 604       0.077700
     39 H10          0.5720     1.2140    -1.5160 h2         1 604       0.076700
     40 H11         -7.3770    -0.0760     3.0800 hc         1 604       0.055700
     41 H12         -6.0450     1.0750     3.0360 hc         1 604       0.055700
     42 H13         -7.6830     1.6080     2.6280 hc         1 604       0.055700
     43 H14         -2.8670    -1.9660     0.9210 h1         1 604       0.066200
     44 H15         -2.9720    -0.2050     0.7900 h1         1 604       0.066200
     45 H16          3.1620    -0.0570    -0.5500 hn         1 604       0.325500
     46 H17         -3.0470    -0.5330    -1.6630 hn         1 604       0.433800
     47 H19          1.6850    -1.2420     3.0570 ho         1 604       0.416000
     48 H20         -1.3430    -1.9690     2.8570 ho         1 604       0.418000
     49 H21          0.8090    -0.7260    -2.5810 ho         1 604       0.424000
     50 C12         -8.2240     2.1240    -0.2640 c          1 604       0.947200
     51 O25         -4.8430    -3.0340    -0.2900 o          1 604      -0.619800
     52 O26         -5.0510    -1.9370    -2.5580 o          1 604      -0.619800
     53 C18         -6.9780     0.7880     2.5460 c3         1 604      -0.128400
@<TRIPOS>BOND
     1     1     2 ar  
     2     1     3 ar  
     3     1    30 1   
     4     2     6 ar  
     5     2    31 1   
     6     3     8 ar  
     7     3    32 1   
     8     4     6 ar  
     9     4     8 ar  
    10     4    33 1   
    11     5     7 1   
    12     5    10 2   
    13     5    34 1   
    14     6    11 1   
    15     7     9 2   
    16     7    50 1   
    17     8    29 1   
    18     9    23 1   
    19     9    53 1   
    20    10    23 1   
    21    10    28 1   
    22    11    18 1   
    23    11    21 2   
    24    12    13 1   
    25    12    16 1   
    26    12    18 1   
    27    12    35 1   
    28    13    14 1   
    29    13    25 1   
    30    13    36 1   
    31    14    15 1   
    32    14    26 1   
    33    14    37 1   
    34    15    17 1   
    35    15    24 1   
    36    15    38 1   
    37    16    24 1   
    38    16    27 1   
    39    16    39 1   
    40    17    19 1   
    41    17    43 1   
    42    17    44 1   
    43    18    45 1   
    44    19    28 1   
    45    19    46 1   
    46    20    50 1   
    47    22    50 1   
    48    25    47 1   
    49    26    48 1   
    50    27    49 1   
    51    28    51 2   
    52    28    52 2   
    53    40    53 1   
    54    41    53 1   
    55    42    53 1   
@<TRIPOS>SUBSTRUCTURE
     1 604         1 TEMP              0 ****  ****    0 ROOT
