@<TRIPOS>MOLECULE
604
   53    55     1     0     0
SMALL
No Charge or Current Charge


@<TRIPOS>ATOM
      1 C1           6.2800     3.3480     1.0410 ca         1 604      -0.122000
      2 C2           4.9870     2.9160     1.3850 ca         1 604      -0.048000
      3 C3           7.0880     2.5610     0.2060 ca         1 604      -0.071000
      4 C4           5.3060     0.9030     0.0560 ca         1 604      -0.061000
      5 C5          -6.4480     0.3340    -1.2980 cc         1 604       0.010000
      6 C6           4.4800     1.6880     0.8990 ca         1 604      -0.144600
      7 C7          -6.6170     1.7260    -1.1330 cc         1 604      -0.218600
      8 C8           6.5980     1.3410    -0.2840 ca         1 604      -0.029900
      9 C9          -6.0400     2.0460     0.0720 cd         1 604       0.192300
     10 C10         -5.7870    -0.1030    -0.1840 cd         1 604      -0.199100
     11 C11          3.0820     1.2570     1.2920 c          1 604       0.621700
     12 C13          1.3150    -0.5540     1.0780 c6         1 604       0.091700
     13 C14          1.2970    -2.0640     0.6910 c6         1 604       0.156300
     14 C15         -0.0980    -2.6930     0.9770 c6         1 604       0.107300
     15 C16         -1.1820    -1.8770     0.2060 c6         1 604       0.139300
     16 C17          0.1470     0.1830     0.3390 c6         1 604       0.377300
     17 C19         -2.6350    -2.3610     0.4980 c3         1 604       0.214800
     18 N20          2.6380     0.0540     0.7960 ns         1 604      -0.489900
     19 N21         -3.6420    -1.5080    -0.1640 n7         1 604      -0.883300
     20 O22         -7.3700     3.8220    -1.8350 o          1 604      -0.718000
     21 O23          2.3680     1.9370     2.0160 o          1 604      -0.589100
     22 O24         -7.7390     2.1460    -3.1170 o          1 604      -0.718000
     23 O27         -5.5070     0.9320     0.6860 os         1 604      -0.242000
     24 O28         -1.1090    -0.4730     0.5930 os         1 604      -0.474000
     25 O29          2.3140    -2.7960     1.3960 oh         1 604      -0.651000
     26 O30         -0.0950    -4.0880     0.5970 oh         1 604      -0.724000
     27 O31          0.3280     0.2170    -1.0750 oh         1 604      -0.688000
     28 S32         -5.2480    -1.7700     0.1930 sy         1 604       1.142200
     29 Br           7.6960     0.2660    -1.4230 br         1 604      -0.100100
     30 H1           6.6560     4.2950     1.4230 ha         1 604       0.120000
     31 H2           4.3790     3.5430     2.0340 ha         1 604       0.139000
     32 H3           8.0880     2.8960    -0.0600 ha         1 604       0.127000
     33 H4           4.9660    -0.0480    -0.3450 ha         1 604       0.133000
     34 H5          -6.7800    -0.2580    -2.1470 ha         1 604       0.162000
     35 H6           1.1260    -0.4740     2.1580 h1         1 604       0.108700
     36 H7           1.4830    -2.1400    -0.3920 h1         1 604       0.054700
     37 H8          -0.3010    -2.5970     2.0560 h1         1 604       0.058700
     38 H9          -1.0090    -1.9670    -0.8760 h1         1 604       0.077700
     39 H10          0.0900     1.2140     0.7230 h2         1 604       0.076700
     40 H11         -5.3770     3.2440     1.7410 hc         1 604       0.055700
     41 H12         -5.3360     4.0790     0.1800 hc         1 604       0.055700
     42 H13         -6.8860     3.7980     0.9980 hc         1 604       0.055700
     43 H14         -2.7330    -3.4010     0.1580 h1         1 604       0.066200
     44 H15         -2.7700    -2.3560     1.5890 h1         1 604       0.066200
     45 H16          3.2810    -0.4690     0.2190 hn         1 604       0.325500
     46 H17         -3.5220    -0.5480     0.1580 hn         1 604       0.489000
     47 H19          2.0690    -3.7420     1.2750 ho         1 604       0.455000
     48 H20         -0.6660    -4.5790     1.2360 ho         1 604       0.517000
     49 H21         -0.5110     0.5850    -1.4250 ho         1 604       0.463000
     50 C12         -7.2860     2.6300    -2.0910 c          1 604       0.736600
     51 O25         -5.3150    -2.0140     1.6370 o          1 604      -0.549000
     52 O26         -5.7560    -2.7100    -0.8100 o          1 604      -0.549000
     53 C18         -5.9020     3.3630     0.7860 c3         1 604      -0.128400
@<TRIPOS>BOND
     1     1     2 ar  
     2     1     3 ar  
     3     1    30 1   
     4     2     6 ar  
     5     2    31 1   
     6     3     8 ar  
     7     3    32 1   
     8     4     6 ar  
     9     4     8 ar  
    10     4    33 1   
    11     5     7 1   
    12     5    10 2   
    13     5    34 1   
    14     6    11 1   
    15     7     9 2   
    16     7    50 1   
    17     8    29 1   
    18     9    23 1   
    19     9    53 1   
    20    10    23 1   
    21    10    28 1   
    22    11    18 1   
    23    11    21 2   
    24    12    13 1   
    25    12    16 1   
    26    12    18 1   
    27    12    35 1   
    28    13    14 1   
    29    13    25 1   
    30    13    36 1   
    31    14    15 1   
    32    14    26 1   
    33    14    37 1   
    34    15    17 1   
    35    15    24 1   
    36    15    38 1   
    37    16    24 1   
    38    16    27 1   
    39    16    39 1   
    40    17    19 1   
    41    17    43 1   
    42    17    44 1   
    43    18    45 1   
    44    19    28 1   
    45    19    46 1   
    46    20    50 1   
    47    22    50 1   
    48    25    47 1   
    49    26    48 1   
    50    27    49 1   
    51    28    51 2   
    52    28    52 2   
    53    40    53 1   
    54    41    53 1   
    55    42    53 1   
@<TRIPOS>SUBSTRUCTURE
     1 604         1 TEMP              0 ****  ****    0 ROOT
