@<TRIPOS>MOLECULE
605
   44    46     1     0     0
SMALL
No Charge or Current Charge


@<TRIPOS>ATOM
      1 C1           6.4020    -0.8180    -0.9360 ca         1 605      -0.121000
      2 C2           4.9970    -0.7890    -0.9300 ca         1 605       0.155000
      3 C3           4.3020     0.3450    -0.4500 ca         1 605      -0.096300
      4 C4           5.0410     1.4520     0.0180 ca         1 605      -0.136000
      5 C5           6.4460     1.4200     0.0100 ca         1 605       0.160000
      6 C6           7.1300     0.2900    -0.4640 ca         1 605      -0.126000
      7 C10          2.7730     0.3860    -0.4410 c3         1 605      -0.070100
      8 C11          2.1400    -0.4880     0.6700 c3         1 605       0.215800
      9 C14          0.6120    -0.5370     0.5840 ca         1 605      -0.069300
     10 N15          2.5760    -0.0370     2.0050 n8         1 605      -0.995200
     11 C17         -0.0440    -1.7750     0.4390 ca         1 605      -0.101000
     12 C18         -1.4450    -1.8360     0.3520 ca         1 605      -0.098000
     13 C19         -2.2360    -0.6620     0.4070 cp         1 605      -0.039000
     14 C20         -1.5640     0.5760     0.5560 ca         1 605      -0.098000
     15 C21         -0.1630     0.6390     0.6450 ca         1 605      -0.101000
     16 C26         -3.7300    -0.7290     0.3130 cp         1 605      -0.039000
     17 C27         -4.4500    -1.8040     0.8880 ca         1 605      -0.080000
     18 C28         -5.8490    -1.8640     0.8000 ca         1 605      -0.121000
     19 C29         -6.5610    -0.8540     0.1350 ca         1 605      -0.086000
     20 C30         -5.8770     0.2360    -0.4540 ca         1 605      -0.152600
     21 C31         -4.4670     0.2820    -0.3550 ca         1 605      -0.049000
     22 F34          7.1430     2.4860     0.4610 f          1 605      -0.173000
     23 F35          4.3170    -1.8620    -1.3930 f          1 605      -0.176000
     24 C40         -6.6090     1.3430    -1.1830 c          1 605       0.617700
     25 N41         -7.9550     1.2740    -1.2670 nt         1 605      -0.604000
     26 O42         -6.0340     2.2890    -1.6950 o          1 605      -0.606100
     27 H1           6.9230    -1.6970    -1.3070 ha         1 605       0.138000
     28 H4           4.5320     2.3390     0.3880 ha         1 605       0.135000
     29 H6           8.2170     0.2750    -0.4660 ha         1 605       0.139000
     30 H10          2.4220     1.4200    -0.3410 hc         1 605       0.065200
     31 H10A         2.3930     0.0400    -1.4110 hc         1 605       0.065200
     32 H11          2.5210    -1.5110     0.5330 h1         1 605       0.072700
     33 HN15         3.5920     0.1030     1.9790 hn         1 605       0.400000
     34 HN1A         2.2060     0.9050     2.1680 hn         1 605       0.400000
     35 H17          0.5330    -2.6960     0.3900 ha         1 605       0.117500
     36 H18         -1.9200    -2.8060     0.2260 ha         1 605       0.117000
     37 H20         -2.1350     1.5000     0.6200 ha         1 605       0.117000
     38 H21          0.3170     1.6070     0.7650 ha         1 605       0.117500
     39 H27         -3.9210    -2.5910     1.4200 ha         1 605       0.118000
     40 H28         -6.3840    -2.6960     1.2520 ha         1 605       0.116000
     41 H29         -7.6440    -0.9330     0.0850 ha         1 605       0.109000
     42 H31         -3.9300     1.1070    -0.8160 ha         1 605       0.139000
     43 HN41        -8.4510     0.5010    -0.8520 hn         1 605       0.314000
     44 HN4A        -8.4550     2.0050    -1.7500 hn         1 605       0.314000
@<TRIPOS>BOND
     1     1     2 ar  
     2     1     6 ar  
     3     1    27 1   
     4     2     3 ar  
     5     2    23 1   
     6     3     4 ar  
     7     3     7 1   
     8     4     5 ar  
     9     4    28 1   
    10     5     6 ar  
    11     5    22 1   
    12     6    29 1   
    13     7     8 1   
    14     7    30 1   
    15     7    31 1   
    16     8     9 1   
    17     8    10 1   
    18     8    32 1   
    19     9    11 ar  
    20     9    15 ar  
    21    10    33 1   
    22    10    34 1   
    23    11    12 ar  
    24    11    35 1   
    25    12    13 ar  
    26    12    36 1   
    27    13    14 ar  
    28    13    16 1   
    29    14    15 ar  
    30    14    37 1   
    31    15    38 1   
    32    16    17 ar  
    33    16    21 ar  
    34    17    18 ar  
    35    17    39 1   
    36    18    19 ar  
    37    18    40 1   
    38    19    20 ar  
    39    19    41 1   
    40    20    21 ar  
    41    20    24 1   
    42    21    42 1   
    43    24    25 1   
    44    24    26 2   
    45    25    43 1   
    46    25    44 1   
@<TRIPOS>SUBSTRUCTURE
     1 605         1 TEMP              0 ****  ****    0 ROOT
