@<TRIPOS>MOLECULE
605
   44    46     1     0     0
SMALL
bcc


@<TRIPOS>ATOM
      1 C1           6.3360    -1.0740    -0.4540 ca         1 605      -0.139000
      2 C2           4.9570    -1.0790    -0.5090 ca         1 605       0.119900
      3 C3           4.1960     0.0820    -0.5340 ca         1 605      -0.096300
      4 C4           4.8830     1.2920    -0.4930 ca         1 605      -0.154000
      5 C5           6.2640     1.3020    -0.4370 ca         1 605       0.124900
      6 C6           7.0080     0.1400    -0.4170 ca         1 605      -0.144000
      7 C10          2.6970     0.0380    -0.5550 c3         1 605      -0.070100
      8 C11          2.0950    -0.2050     0.8510 c3         1 605       0.215800
      9 C14          0.5930    -0.3240     0.7250 ca         1 605      -0.069300
     10 N15          2.4760     0.7890     1.8340 n8         1 605      -0.884800
     11 C17          0.0390    -1.4760     0.1680 ca         1 605      -0.119000
     12 C18         -1.3300    -1.6120     0.0130 ca         1 605      -0.116000
     13 C19         -2.1990    -0.5920     0.4050 cp         1 605      -0.039000
     14 C20         -1.6440     0.5600     0.9580 ca         1 605      -0.116000
     15 C21         -0.2720     0.6900     1.1200 ca         1 605      -0.119000
     16 C26         -3.6600    -0.7330     0.2470 cp         1 605      -0.039000
     17 C27         -4.2910    -1.9590     0.4620 ca         1 605      -0.098000
     18 C28         -5.6640    -2.0810     0.3250 ca         1 605      -0.139000
     19 C29         -6.4330    -0.9850    -0.0380 ca         1 605      -0.104000
     20 C30         -5.8220     0.2460    -0.2650 ca         1 605      -0.152600
     21 C31         -4.4440     0.3610    -0.1110 ca         1 605      -0.067000
     22 F34          6.9000     2.4850    -0.4020 f          1 605      -0.137900
     23 F35          4.3210    -2.2640    -0.5410 f          1 605      -0.140900
     24 C40         -6.5840     1.4790    -0.6460 c          1 605       0.684700
     25 N41         -7.8070     1.2910    -1.1610 nt         1 605      -0.671000
     26 O42         -6.0980     2.5910    -0.4860 o          1 605      -0.606100
     27 H1           6.8860    -2.0060    -0.4420 ha         1 605       0.156000
     28 H4           4.3350     2.2260    -0.5170 ha         1 605       0.153000
     29 H6           8.0890     0.1720    -0.3760 ha         1 605       0.157000
     30 H10          2.3130     0.9890    -0.9360 hc         1 605       0.065200
     31 H10A         2.3470    -0.7340    -1.2440 hc         1 605       0.065200
     32 H11          2.4650    -1.1690     1.2150 h1         1 605       0.072700
     33 HN15         3.4580     0.6900     2.0590 hn         1 605       0.344800
     34 HN1A         2.3700     1.7240     1.4580 hn         1 605       0.344800
     35 H17          0.6860    -2.2860    -0.1500 ha         1 605       0.135500
     36 H18         -1.7220    -2.5180    -0.4320 ha         1 605       0.135000
     37 H20         -2.2890     1.3630     1.2940 ha         1 605       0.135000
     38 H21          0.1140     1.5920     1.5750 ha         1 605       0.135500
     39 H27         -3.7100    -2.8210     0.7640 ha         1 605       0.136000
     40 H28         -6.1410    -3.0330     0.5160 ha         1 605       0.134000
     41 H29         -7.5060    -1.1060    -0.1140 ha         1 605       0.127000
     42 H31         -3.9740     1.3180    -0.2970 ha         1 605       0.157000
     43 HN41        -8.1680     0.3840    -1.3990 hn         1 605       0.314000
     44 HN4A        -8.3590     2.0870    -1.4350 hn         1 605       0.314000
@<TRIPOS>BOND
     1     1     2 ar  
     2     1     6 ar  
     3     1    27 1   
     4     2     3 ar  
     5     2    23 1   
     6     3     4 ar  
     7     3     7 1   
     8     4     5 ar  
     9     4    28 1   
    10     5     6 ar  
    11     5    22 1   
    12     6    29 1   
    13     7     8 1   
    14     7    30 1   
    15     7    31 1   
    16     8     9 1   
    17     8    10 1   
    18     8    32 1   
    19     9    11 ar  
    20     9    15 ar  
    21    10    33 1   
    22    10    34 1   
    23    11    12 ar  
    24    11    35 1   
    25    12    13 ar  
    26    12    36 1   
    27    13    14 ar  
    28    13    16 1   
    29    14    15 ar  
    30    14    37 1   
    31    15    38 1   
    32    16    17 ar  
    33    16    21 ar  
    34    17    18 ar  
    35    17    39 1   
    36    18    19 ar  
    37    18    40 1   
    38    19    20 ar  
    39    19    41 1   
    40    20    21 ar  
    41    20    24 1   
    42    21    42 1   
    43    24    25 1   
    44    24    26 2   
    45    25    43 1   
    46    25    44 1   
@<TRIPOS>SUBSTRUCTURE
     1 605         1 TEMP              0 ****  ****    0 ROOT
