@<TRIPOS>MOLECULE
607
   53    56     1     0     0
SMALL
abcg2


@<TRIPOS>ATOM
      1 C1           5.8610     0.0720    -0.0390 ca         1 607      -0.291900
      2 C2           5.7660     1.4750    -0.0840 ca         1 607      -0.114000
      3 C3           4.5370     2.1080    -0.0710 ca         1 607      -0.128000
      4 C4           3.4080     1.3020    -0.0250 ca         1 607       0.013000
      5 C5           3.4830    -0.1110     0.0100 ca         1 607      -0.023000
      6 C6           4.7240    -0.7330     0.0100 ca         1 607      -0.096000
      7 C7           7.1850    -0.5550    -0.0300 ce         1 607       0.483400
      8 N1           7.3750    -1.6550     0.6620 nv         1 607      -0.608200
      9 N2           8.1680    -0.0110    -0.7110 nv         1 607      -0.592300
     10 N3           2.0790     1.5700    -0.0060 na         1 607      -0.283900
     11 N4           2.2310    -0.6530     0.0410 nc         1 607      -0.342600
     12 C8           1.4100     0.3810     0.0350 cc         1 607       0.275500
     13 C9          -0.0350     0.3470     0.0640 cd         1 607      -0.293200
     14 C10         -0.6810    -0.8950     0.0970 cd         1 607      -0.067000
     15 C11         -2.0570    -1.0120     0.1340 cc         1 607      -0.104200
     16 CVX         -2.7470    -2.3560     0.1770 c3         1 607      -0.119500
     17 CWX         -2.4390    -3.0190     1.5340 c          1 607       0.745000
     18 OXX         -3.1430    -2.6660     2.5030 o          1 607      -0.736000
     19 OYX         -1.4800    -3.8170     1.5760 o          1 607      -0.736000
     20 C6X         -2.3630    -3.2380    -1.0030 c3         1 607      -0.160400
     21 C7X         -3.0130    -4.6280    -0.9930 c          1 607       0.732000
     22 O8X         -4.1010    -4.7510    -0.3940 o          1 607      -0.767000
     23 O9X         -2.4210    -5.5310    -1.6250 o          1 607      -0.767000
     24 C12         -2.7880     0.1830     0.1450 cc         1 607      -0.048000
     25 C13         -2.2010     1.4340     0.1080 cd         1 607      -0.280400
     26 C14         -0.7730     1.5800     0.0780 c          1 607       0.571500
     27 O6          -0.2260     2.7280     0.0770 o          1 607      -0.761100
     28 C1B         -3.0450     2.6500     0.1530 ca         1 607      -0.010800
     29 C2B         -3.1560     3.5010    -0.9650 ca         1 607       0.303000
     30 C3B         -3.9910     4.6210    -0.8830 ca         1 607      -0.206000
     31 C4B         -4.7060     4.8980     0.2720 ca         1 607      -0.109000
     32 C5B         -4.6110     4.0590     1.3730 ca         1 607      -0.173000
     33 C6B         -3.7810     2.9470     1.2950 ca         1 607      -0.073000
     34 N2B         -2.4450     3.2550    -2.1210 nv         1 607      -1.062000
     35 HC2          6.6630     2.0800    -0.0930 ha         1 607       0.078000
     36 HC3          4.4690     3.1870    -0.0870 ha         1 607       0.116000
     37 HC6          4.7930    -1.8140     0.0170 ha         1 607       0.121000
     38 HH11         8.2540    -2.1490     0.6580 hn         1 607       0.351750
     39 HH12         6.6680    -1.9890     1.2960 hn         1 607       0.351750
     40 HH21         7.9950     0.7500    -1.3460 hn         1 607       0.351750
     41 HH22         9.1100    -0.3710    -0.6740 hn         1 607       0.351750
     42 HN3          1.5310     2.4380    -0.0010 hn         1 607       0.425000
     43 H1          -0.0660    -1.7880     0.1000 ha         1 607       0.215000
     44 H31B        -3.8240    -2.1730     0.1330 hc         1 607       0.047700
     45 H42A        -2.6640    -2.7370    -1.9330 hc         1 607       0.001200
     46 H42B        -1.2790    -3.3490    -1.0640 hc         1 607       0.001200
     47 HC4         -3.8730     0.1250     0.1710 ha         1 607       0.168000
     48 H3B         -4.0820     5.2760    -1.7420 ha         1 607       0.081000
     49 H4B         -5.3450     5.7720     0.3030 ha         1 607       0.075000
     50 H5B         -5.1700     4.2650     2.2770 ha         1 607       0.089000
     51 H6B         -3.6960     2.2820     2.1470 ha         1 607       0.123000
     52 HN2A        -2.8540     3.6240    -2.9640 hn         1 607       0.441000
     53 HN2B        -2.1340     2.3040    -2.2410 hn         1 607       0.441000
@<TRIPOS>BOND
     1     1     2 ar  
     2     1     6 ar  
     3     1     7 1   
     4     2     3 ar  
     5     2    35 1   
     6     3     4 ar  
     7     3    36 1   
     8     4     5 ar  
     9     4    10 2   
    10     5     6 ar  
    11     5    11 2   
    12     6    37 1   
    13     7     8 2   
    14     7     9 1   
    15     8    38 1   
    16     8    39 1   
    17     9    40 1   
    18     9    41 1   
    19    10    12 1   
    20    10    42 1   
    21    11    12 1   
    22    12    13 2   
    23    13    14 1   
    24    13    26 1   
    25    14    15 2   
    26    14    43 1   
    27    15    16 1   
    28    15    24 1   
    29    16    17 1   
    30    16    20 1   
    31    16    44 1   
    32    17    18 1   
    33    17    19 1   
    34    20    21 1   
    35    20    45 1   
    36    20    46 1   
    37    21    22 1   
    38    21    23 1   
    39    24    25 2   
    40    24    47 1   
    41    25    26 1   
    42    25    28 1   
    43    26    27 2   
    44    28    29 ar  
    45    28    33 ar  
    46    29    30 ar  
    47    29    34 1   
    48    30    31 ar  
    49    30    48 1   
    50    31    32 ar  
    51    31    49 1   
    52    32    33 ar  
    53    32    50 1   
    54    33    51 1   
    55    34    52 1   
    56    34    53 1   
@<TRIPOS>SUBSTRUCTURE
     1 607         1 TEMP              0 ****  ****    0 ROOT
