@<TRIPOS>MOLECULE
607
   53    56     1     0     0
SMALL
No Charge or Current Charge


@<TRIPOS>ATOM
      1 C1           5.9730     0.0080    -0.1760 ca         1 607      -0.291900
      2 C2           5.8420     1.4240    -0.2680 ca         1 607      -0.114000
      3 C3           4.5740     2.0410    -0.2600 ca         1 607      -0.128000
      4 C4           3.4490     1.2200    -0.1590 ca         1 607       0.013000
      5 C5           3.5510    -0.1600    -0.0690 ca         1 607      -0.023000
      6 C6           4.8010    -0.7910    -0.0750 ca         1 607      -0.096000
      7 C7           7.3200    -0.6300    -0.1860 ce         1 607       0.483400
      8 N1           7.5130    -1.8250     0.4500 nv         1 607      -0.608200
      9 N2           8.3560    -0.0200    -0.8360 nv         1 607      -0.592300
     10 N3           2.1130     1.5640    -0.1310 na         1 607      -0.283900
     11 N4           2.2860    -0.7200     0.0160 nc         1 607      -0.342600
     12 C8           1.4450     0.3660    -0.0250 cc         1 607       0.275500
     13 C9           0.0490     0.3890     0.0270 cd         1 607      -0.293200
     14 C10         -0.5620    -0.9110     0.1570 cd         1 607      -0.067000
     15 C11         -1.9370    -1.0130     0.2430 cc         1 607      -0.104200
     16 CVX         -2.6440    -2.3550     0.3990 c3         1 607      -0.119500
     17 CWX         -2.4230    -3.0080     1.7940 c          1 607       0.745000
     18 OXX         -3.3920    -3.1260     2.5330 o          1 607      -0.736000
     19 OYX         -1.2860    -3.3060     2.1370 o          1 607      -0.736000
     20 C6X         -2.3050    -3.3310    -0.7710 c3         1 607      -0.160400
     21 C7X         -3.2630    -4.5440    -0.7660 c          1 607       0.732000
     22 O8X         -4.3300    -4.4420    -1.3530 o          1 607      -0.767000
     23 O9X         -2.9280    -5.5500    -0.1580 o          1 607      -0.767000
     24 C12         -2.7500     0.1770     0.1790 cc         1 607      -0.048000
     25 C13         -2.2440     1.4570    -0.0020 cd         1 607      -0.280400
     26 C14         -0.7600     1.6440    -0.0300 c          1 607       0.571500
     27 O6          -0.2430     2.7580    -0.0770 o          1 607      -0.761100
     28 C1B         -3.1990     2.6150     0.0220 ca         1 607      -0.010800
     29 C2B         -3.0900     3.7630    -0.8250 ca         1 607       0.303000
     30 C3B         -4.0560     4.7830    -0.7730 ca         1 607      -0.206000
     31 C4B         -5.1410     4.6990     0.1090 ca         1 607      -0.109000
     32 C5B         -5.2680     3.5820     0.9420 ca         1 607      -0.173000
     33 C6B         -4.3150     2.5510     0.8940 ca         1 607      -0.073000
     34 N2B         -2.0870     3.9070    -1.7430 nv         1 607      -1.062000
     35 HC2          6.7250     2.0560    -0.3340 ha         1 607       0.078000
     36 HC3          4.4770     3.1220    -0.3270 ha         1 607       0.116000
     37 HC6          4.8530    -1.8760    -0.0160 ha         1 607       0.121000
     38 HH11         8.4600    -2.1370     0.6140 hn         1 607       0.351750
     39 HH12         6.7900    -2.1460     1.0800 hn         1 607       0.351750
     40 HH21         8.1340     0.7560    -1.4450 hn         1 607       0.351750
     41 HH22         9.1930    -0.5530    -1.0280 hn         1 607       0.351750
     42 HN3          1.6690     2.4780    -0.1600 hn         1 607       0.425000
     43 H1           0.0320    -1.8200     0.2080 ha         1 607       0.215000
     44 H31B        -3.7230    -2.1730     0.3240 hc         1 607       0.047700
     45 H42A        -2.4540    -2.7440    -1.6870 hc         1 607       0.001200
     46 H42B        -1.2670    -3.6550    -0.6270 hc         1 607       0.001200
     47 HC4         -3.8260     0.0340     0.2320 ha         1 607       0.168000
     48 H3B         -3.9710     5.6490    -1.4240 ha         1 607       0.081000
     49 H4B         -5.8820     5.4950     0.1440 ha         1 607       0.075000
     50 H5B         -6.1080     3.5120     1.6300 ha         1 607       0.089000
     51 H6B         -4.4360     1.7100     1.5720 ha         1 607       0.123000
     52 HN2A        -1.9840     4.8200    -2.1750 hn         1 607       0.441000
     53 HN2B        -1.2080     3.4710    -1.4480 hn         1 607       0.441000
@<TRIPOS>BOND
     1     1     2 ar  
     2     1     6 ar  
     3     1     7 1   
     4     2     3 ar  
     5     2    35 1   
     6     3     4 ar  
     7     3    36 1   
     8     4     5 ar  
     9     4    10 2   
    10     5     6 ar  
    11     5    11 2   
    12     6    37 1   
    13     7     8 2   
    14     7     9 1   
    15     8    38 1   
    16     8    39 1   
    17     9    40 1   
    18     9    41 1   
    19    10    12 1   
    20    10    42 1   
    21    11    12 1   
    22    12    13 2   
    23    13    14 1   
    24    13    26 1   
    25    14    15 2   
    26    14    43 1   
    27    15    16 1   
    28    15    24 1   
    29    16    17 1   
    30    16    20 1   
    31    16    44 1   
    32    17    18 1   
    33    17    19 1   
    34    20    21 1   
    35    20    45 1   
    36    20    46 1   
    37    21    22 1   
    38    21    23 1   
    39    24    25 2   
    40    24    47 1   
    41    25    26 1   
    42    25    28 1   
    43    26    27 2   
    44    28    29 ar  
    45    28    33 ar  
    46    29    30 ar  
    47    29    34 1   
    48    30    31 ar  
    49    30    48 1   
    50    31    32 ar  
    51    31    49 1   
    52    32    33 ar  
    53    32    50 1   
    54    33    51 1   
    55    34    52 1   
    56    34    53 1   
@<TRIPOS>SUBSTRUCTURE
     1 607         1 TEMP              0 ****  ****    0 ROOT
