@<TRIPOS>MOLECULE
608
   50    53     1     0     0
SMALL
bcc


@<TRIPOS>ATOM
      1 C10          3.3720    -2.9490     1.9850 ca         1 608      -0.109000
      2 C11          3.3510    -2.5620     0.6510 ca         1 608      -0.159500
      3 C12          2.3420    -1.7160     0.1890 ca         1 608       0.071600
      4 C13          1.3630    -1.2830     1.0870 ca         1 608      -0.159500
      5 C14          1.3840    -1.6750     2.4120 ca         1 608      -0.109000
      6 C15          2.3940    -2.5140     2.8610 ca         1 608       0.072100
      7 C16          9.4930    -0.4750    -5.1450 ca         1 608       0.400700
      8 N4           9.7340     0.0790    -3.9630 nb         1 608      -0.662000
      9 C17          8.2180    -0.6810    -5.6500 ca         1 608      -0.238300
     10 C18          7.1180    -0.2860    -4.8980 ca         1 608      -0.064300
     11 C8           7.3690     0.2950    -3.6590 ca         1 608      -0.238300
     12 C9           8.6820     0.4520    -3.2430 ca         1 608       0.400700
     13 C19          2.5460    -0.9440    -3.4840 ca         1 608      -0.359900
     14 C20          1.1920    -0.7780    -3.7440 ca         1 608      -0.022000
     15 C21          0.7580    -0.2460    -4.9470 ca         1 608      -0.327300
     16 C22          1.7300     0.1090    -5.8650 ca         1 608       0.489200
     17 N3           3.0270    -0.0650    -5.6710 nb         1 608      -0.767000
     18 C23          3.4560    -0.5950    -4.5240 ca         1 608       0.737200
     19 N1           4.7900    -0.7520    -4.3870 nu         1 608      -0.865900
     20 C7           5.7260    -0.4500    -5.4390 c3         1 608       0.270100
     21 C24          3.0300    -1.4910    -2.1920 c          1 608       0.709700
     22 N2           2.2160    -1.2680    -1.1300 ns         1 608      -0.463100
     23 O1           4.0960    -2.0880    -2.0960 o          1 608      -0.612100
     24 O2           2.4030    -2.9600     4.1590 os         1 608      -0.252200
     25 C1           3.8480    -0.1320     6.0040 ca         1 608      -0.097000
     26 C2           3.6590    -0.5730     7.3050 ca         1 608      -0.161000
     27 C3           3.0510    -1.8040     7.5210 ca         1 608      -0.097000
     28 C4           2.6320    -2.5820     6.4530 ca         1 608      -0.178500
     29 C5           2.8260    -2.1270     5.1510 ca         1 608       0.134100
     30 C6           3.4370    -0.9000     4.9210 ca         1 608      -0.178500
     31 H10          4.1590    -3.6040     2.3340 ha         1 608       0.148500
     32 H11          4.1230    -2.9230    -0.0060 ha         1 608       0.150500
     33 H13          0.5650    -0.6340     0.7440 ha         1 608       0.150500
     34 H14          0.6110    -1.3320     3.0870 ha         1 608       0.148500
     35 H17          8.0910    -1.1500    -6.6170 ha         1 608       0.145000
     36 H8           6.5610     0.6240    -3.0190 ha         1 608       0.145000
     37 H9           8.8910     0.9020    -2.2780 h4         1 608       0.019600
     38 H20          0.4530    -1.0820    -3.0130 ha         1 608       0.131000
     39 H21         -0.2920    -0.1170    -5.1640 ha         1 608       0.149000
     40 H22          1.4470     0.5450    -6.8170 h4         1 608       0.020100
     41 HN1          5.0910    -1.3670    -3.6460 hn         1 608       0.473800
     42 H71          5.4260     0.4810    -5.9230 h1         1 608       0.065700
     43 H72          5.7240    -1.2160    -6.2220 h1         1 608       0.065700
     44 HN2          1.4270    -0.6600    -1.2860 hn         1 608       0.321500
     45 H1           4.3240     0.8220     5.8170 ha         1 608       0.130500
     46 H2           3.9800     0.0330     8.1420 ha         1 608       0.133000
     47 H3           2.8960    -2.1650     8.5290 ha         1 608       0.130500
     48 H4           2.1570    -3.5400     6.6230 ha         1 608       0.144500
     49 H6           3.6010    -0.5340     3.9160 ha         1 608       0.144500
     50 H16         10.3580    -0.7800    -5.7240 h4         1 608       0.019600
@<TRIPOS>BOND
     1     1     2 ar  
     2     1     6 ar  
     3     1    31 1   
     4     2     3 ar  
     5     2    32 1   
     6     3     4 ar  
     7     3    22 1   
     8     4     5 ar  
     9     4    33 1   
    10     5     6 ar  
    11     5    34 1   
    12     6    24 1   
    13     7     8 ar  
    14     7     9 ar  
    15     7    50 1   
    16     8    12 ar  
    17     9    10 ar  
    18     9    35 1   
    19    10    11 ar  
    20    10    20 1   
    21    11    12 ar  
    22    11    36 1   
    23    12    37 1   
    24    13    14 ar  
    25    13    18 ar  
    26    13    21 1   
    27    14    15 ar  
    28    14    38 1   
    29    15    16 ar  
    30    15    39 1   
    31    16    17 ar  
    32    16    40 1   
    33    17    18 ar  
    34    18    19 1   
    35    19    20 1   
    36    19    41 1   
    37    20    42 1   
    38    20    43 1   
    39    21    22 1   
    40    21    23 2   
    41    22    44 1   
    42    24    29 1   
    43    25    26 ar  
    44    25    30 ar  
    45    25    45 1   
    46    26    27 ar  
    47    26    46 1   
    48    27    28 ar  
    49    27    47 1   
    50    28    29 ar  
    51    28    48 1   
    52    29    30 ar  
    53    30    49 1   
@<TRIPOS>SUBSTRUCTURE
     1 608         1 TEMP              0 ****  ****    0 ROOT
