@<TRIPOS>MOLECULE
608
   50    53     1     0     0
SMALL
No Charge or Current Charge


@<TRIPOS>ATOM
      1 C10          4.4280    -2.4130     2.1140 ca         1 608      -0.091000
      2 C11          4.2180    -2.0190     0.7790 ca         1 608      -0.141500
      3 C12          2.9460    -1.5670     0.3590 ca         1 608      -0.021000
      4 C13          1.8940    -1.5340     1.2950 ca         1 608      -0.141500
      5 C14          2.1030    -1.9270     2.6290 ca         1 608      -0.091000
      6 C15          3.3780    -2.3560     3.0430 ca         1 608       0.072100
      7 C16          9.0080    -1.8630    -5.3780 ca         1 608       0.335400
      8 N4           9.7890    -0.9210    -4.7990 nb         1 608      -0.662000
      9 C17          7.6650    -1.6370    -5.7240 ca         1 608      -0.155000
     10 C18          7.0870    -0.3800    -5.4660 ca         1 608      -0.064300
     11 C8           7.8990     0.5970    -4.8600 ca         1 608      -0.155000
     12 C9           9.2340     0.2870    -4.5470 ca         1 608       0.335400
     13 C19          2.7250    -0.5270    -3.3460 ca         1 608      -0.294600
     14 C20          1.3210    -0.3530    -3.3590 ca         1 608      -0.004000
     15 C21          0.7050     0.0280    -4.5570 ca         1 608      -0.244000
     16 C22          1.4880     0.2250    -5.6990 ca         1 608       0.423900
     17 N3           2.8240     0.0630    -5.6990 nb         1 608      -0.767000
     18 C23          3.4140    -0.3020    -4.5550 ca         1 608       0.671900
     19 N1           4.7730    -0.4390    -4.6790 nu         1 608      -0.921100
     20 C7           5.6330    -0.0920    -5.8160 c3         1 608       0.270100
     21 C24          3.4570    -0.9350    -2.0860 c          1 608       0.642700
     22 N2           2.6540    -1.1580    -0.9720 ns         1 608      -0.137000
     23 O1           4.6770    -1.0490    -2.0520 o          1 608      -0.612100
     24 O2           3.6090    -2.7610     4.3390 os         1 608      -0.252200
     25 C1           2.3110    -0.1400     6.6100 ca         1 608      -0.079000
     26 C2           1.8960    -0.9320     7.6950 ca         1 608      -0.143000
     27 C3           2.0590    -2.3280     7.6530 ca         1 608      -0.079000
     28 C4           2.6340    -2.9320     6.5210 ca         1 608      -0.160500
     29 C5           3.0370    -2.1450     5.4290 ca         1 608       0.134100
     30 C6           2.8850    -0.7450     5.4780 ca         1 608      -0.160500
     31 H10          5.4090    -2.7620     2.4290 ha         1 608       0.130500
     32 H11          5.0540    -2.0830     0.0900 ha         1 608       0.132500
     33 H13          0.9040    -1.2000     0.9890 ha         1 608       0.132500
     34 H14          1.2760    -1.9020     3.3340 ha         1 608       0.130500
     35 H17          7.0860    -2.4330    -6.1840 ha         1 608       0.127000
     36 H8           7.5070     1.5840    -4.6310 ha         1 608       0.127000
     37 H9           9.8790     1.0300    -4.0780 h4         1 608       0.019600
     38 H20          0.7010    -0.5020    -2.4770 ha         1 608       0.113000
     39 H21         -0.3700     0.1720    -4.6080 ha         1 608       0.131000
     40 H22          1.0320     0.5220    -6.6430 h4         1 608       0.020100
     41 HN1          5.2260    -0.6910    -3.7970 hn         1 608       0.529000
     42 H71          5.5230     0.9720    -6.0680 h1         1 608       0.065700
     43 H72          5.3490    -0.6740    -6.7050 h1         1 608       0.065700
     44 HN2          1.6690    -1.0040    -1.1370 hn         1 608       0.155000
     45 H1           2.1910     0.9410     6.6480 ha         1 608       0.112500
     46 H2           1.4530    -0.4640     8.5710 ha         1 608       0.115000
     47 H3           1.7430    -2.9390     8.4950 ha         1 608       0.112500
     48 H4           2.7630    -4.0110     6.4860 ha         1 608       0.126500
     49 H6           3.2150    -0.1280     4.6460 ha         1 608       0.126500
     50 H16          9.4750    -2.8290    -5.5700 h4         1 608       0.019600
@<TRIPOS>BOND
     1     1     2 ar  
     2     1     6 ar  
     3     1    31 1   
     4     2     3 ar  
     5     2    32 1   
     6     3     4 ar  
     7     3    22 1   
     8     4     5 ar  
     9     4    33 1   
    10     5     6 ar  
    11     5    34 1   
    12     6    24 1   
    13     7     8 ar  
    14     7     9 ar  
    15     7    50 1   
    16     8    12 ar  
    17     9    10 ar  
    18     9    35 1   
    19    10    11 ar  
    20    10    20 1   
    21    11    12 ar  
    22    11    36 1   
    23    12    37 1   
    24    13    14 ar  
    25    13    18 ar  
    26    13    21 1   
    27    14    15 ar  
    28    14    38 1   
    29    15    16 ar  
    30    15    39 1   
    31    16    17 ar  
    32    16    40 1   
    33    17    18 ar  
    34    18    19 1   
    35    19    20 1   
    36    19    41 1   
    37    20    42 1   
    38    20    43 1   
    39    21    22 1   
    40    21    23 2   
    41    22    44 1   
    42    24    29 1   
    43    25    26 ar  
    44    25    30 ar  
    45    25    45 1   
    46    26    27 ar  
    47    26    46 1   
    48    27    28 ar  
    49    27    47 1   
    50    28    29 ar  
    51    28    48 1   
    52    29    30 ar  
    53    30    49 1   
@<TRIPOS>SUBSTRUCTURE
     1 608         1 TEMP              0 ****  ****    0 ROOT
