@<TRIPOS>MOLECULE
609
   33    37     1     0     0
SMALL
abcg2


@<TRIPOS>ATOM
      1 CAW          1.0110     0.3950    -0.0010 ca         1 609       0.017000
      2 CAR          2.4320     0.3990     0.0130 ca         1 609      -0.049000
      3 CAI          3.0870     1.6550    -0.0100 ca         1 609       0.009000
      4 CAF          2.3810     2.8290    -0.0350 ca         1 609      -0.189000
      5 CAJ          0.9820     2.8180    -0.0310 ca         1 609      -0.016000
      6 CAS          0.3000     1.6220    -0.0150 ca         1 609      -0.200600
      7 CAP         -1.1710     1.6550    -0.0170 c          1 609       0.610600
      8 OAB         -1.8330     2.6690    -0.0280 o          1 609      -0.536000
      9 NAX         -1.7860     0.4110    -0.0050 n          1 609      -0.208500
     10 CAU         -3.1460     0.1260    -0.0030 ca         1 609      -0.027400
     11 CAK         -4.2880     0.9150    -0.0110 ca         1 609      -0.084000
     12 CAE         -5.5040     0.2470    -0.0070 ca         1 609      -0.123000
     13 CAD         -5.5780    -1.1500     0.0040 ca         1 609      -0.134000
     14 CAH         -4.4340    -1.9290     0.0110 ca         1 609      -0.069000
     15 CAQ         -3.2050    -1.2760     0.0070 ca         1 609       0.085400
     16 NAM         -1.9380    -1.8170     0.0100 nc         1 609      -0.595100
     17 CAV         -1.1260    -0.8080     0.0030 cd         1 609       0.504500
     18 CAT          0.3160    -0.8360    -0.0010 ca         1 609      -0.198900
     19 CAL          1.0140    -2.0200    -0.0170 ca         1 609      -0.014000
     20 CAG          2.4110    -2.0140    -0.0350 ca         1 609      -0.142000
     21 CAO          3.1340    -0.8420     0.0010 ca         1 609      -0.056600
     22 CAN          4.6590    -0.9500     0.0520 c          1 609       0.710600
     23 OAC          5.1540    -1.8600    -0.6340 o          1 609      -0.701500
     24 OAA          5.2550    -0.1500     0.7950 o          1 609      -0.701500
     25 HAI          4.1650     1.6850    -0.0040 ha         1 609       0.162000
     26 HAF          2.9060     3.7740    -0.0570 ha         1 609       0.109000
     27 HAJ          0.4360     3.7520    -0.0440 ha         1 609       0.118000
     28 HAK         -4.2490     1.9920    -0.0190 ha         1 609       0.136000
     29 HAE         -6.4180     0.8260    -0.0130 ha         1 609       0.102000
     30 HAD         -6.5490    -1.6280     0.0060 ha         1 609       0.102000
     31 HAH         -4.4860    -3.0090     0.0190 ha         1 609       0.121000
     32 HAL          0.4780    -2.9610    -0.0230 ha         1 609       0.121000
     33 HAG          2.9370    -2.9580    -0.0670 ha         1 609       0.137000
@<TRIPOS>BOND
     1     1     2 ar  
     2     1     6 ar  
     3     1    18 ar  
     4     2     3 ar  
     5     2    21 ar  
     6     3     4 ar  
     7     3    25 1   
     8     4     5 ar  
     9     4    26 1   
    10     5     6 ar  
    11     5    27 1   
    12     6     7 1   
    13     7     8 2   
    14     7     9 1   
    15     9    10 1   
    16     9    17 1   
    17    10    11 ar  
    18    10    15 ar  
    19    11    12 ar  
    20    11    28 1   
    21    12    13 ar  
    22    12    29 1   
    23    13    14 ar  
    24    13    30 1   
    25    14    15 ar  
    26    14    31 1   
    27    15    16 1   
    28    16    17 2   
    29    17    18 1   
    30    18    19 ar  
    31    19    20 ar  
    32    19    32 1   
    33    20    21 ar  
    34    20    33 1   
    35    21    22 1   
    36    22    23 1   
    37    22    24 1   
@<TRIPOS>SUBSTRUCTURE
     1 609         1 TEMP              0 ****  ****    0 ROOT
