@<TRIPOS>MOLECULE
609
   33    37     1     0     0
SMALL
No Charge or Current Charge


@<TRIPOS>ATOM
      1 CAW          1.0230     0.4240    -0.0060 ca         1 609       0.017000
      2 CAR          2.4430     0.4040    -0.0020 ca         1 609      -0.049000
      3 CAI          3.1480     1.6290    -0.0320 ca         1 609       0.009000
      4 CAF          2.4550     2.8480    -0.0500 ca         1 609      -0.189000
      5 CAJ          1.0550     2.8680    -0.0420 ca         1 609      -0.016000
      6 CAS          0.3280     1.6600    -0.0220 ca         1 609      -0.200600
      7 CAP         -1.1800     1.7010    -0.0220 c          1 609       0.610600
      8 OAB         -1.8050     2.7550    -0.0330 o          1 609      -0.536000
      9 NAX         -1.8160     0.4640    -0.0090 n          1 609      -0.208500
     10 CAU         -3.1700     0.0890    -0.0060 ca         1 609      -0.027400
     11 CAK         -4.3320     0.8760    -0.0140 ca         1 609      -0.084000
     12 CAE         -5.5760     0.2120    -0.0090 ca         1 609      -0.123000
     13 CAD         -5.6290    -1.2010     0.0030 ca         1 609      -0.134000
     14 CAH         -4.4400    -1.9620     0.0110 ca         1 609      -0.069000
     15 CAQ         -3.2090    -1.2900     0.0060 ca         1 609       0.085400
     16 NAM         -1.9380    -1.8620     0.0110 nc         1 609      -0.595100
     17 CAV         -1.1770    -0.7550     0.0020 cd         1 609       0.504500
     18 CAT          0.2950    -0.7880     0.0040 ca         1 609      -0.198900
     19 CAL          0.9880    -2.0140     0.0100 ca         1 609      -0.014000
     20 CAG          2.3880    -2.0360     0.0140 ca         1 609      -0.142000
     21 CAO          3.1320    -0.8390     0.0160 ca         1 609      -0.056600
     22 CAN          4.6430    -0.9330     0.0390 c          1 609       0.710600
     23 OAC          5.1940    -1.5400    -0.8690 o          1 609      -0.701500
     24 OAA          5.2420    -0.4540     0.9920 o          1 609      -0.701500
     25 HAI          4.2350     1.6550    -0.0470 ha         1 609       0.162000
     26 HAF          3.0090     3.7840    -0.0710 ha         1 609       0.109000
     27 HAJ          0.5390     3.8260    -0.0560 ha         1 609       0.118000
     28 HAK         -4.2840     1.9620    -0.0240 ha         1 609       0.136000
     29 HAE         -6.4970     0.7890    -0.0150 ha         1 609       0.102000
     30 HAD         -6.5930    -1.7060     0.0070 ha         1 609       0.102000
     31 HAH         -4.4760    -3.0490     0.0200 ha         1 609       0.121000
     32 HAL          0.4470    -2.9590     0.0140 ha         1 609       0.121000
     33 HAG          2.9060    -2.9930     0.0240 ha         1 609       0.137000
@<TRIPOS>BOND
     1     1     2 ar  
     2     1     6 ar  
     3     1    18 ar  
     4     2     3 ar  
     5     2    21 ar  
     6     3     4 ar  
     7     3    25 1   
     8     4     5 ar  
     9     4    26 1   
    10     5     6 ar  
    11     5    27 1   
    12     6     7 1   
    13     7     8 2   
    14     7     9 1   
    15     9    10 1   
    16     9    17 1   
    17    10    11 ar  
    18    10    15 ar  
    19    11    12 ar  
    20    11    28 1   
    21    12    13 ar  
    22    12    29 1   
    23    13    14 ar  
    24    13    30 1   
    25    14    15 ar  
    26    14    31 1   
    27    15    16 1   
    28    16    17 2   
    29    17    18 1   
    30    18    19 ar  
    31    19    20 ar  
    32    19    32 1   
    33    20    21 ar  
    34    20    33 1   
    35    21    22 1   
    36    22    23 1   
    37    22    24 1   
@<TRIPOS>SUBSTRUCTURE
     1 609         1 TEMP              0 ****  ****    0 ROOT
