@<TRIPOS>MOLECULE
60A
   24    23     1     0     0
SMALL
abcg2


@<TRIPOS>ATOM
      1 C8          19.0800    13.7130    68.2860 c3         1 60A       0.162600
      2 C7          19.5670    14.6030    69.3990 c3         1 60A       0.161600
      3 C1          21.9450    17.4170    69.2510 c3         1 60A       0.166300
      4 O5          20.4390    15.5920    68.8740 os         1 60A      -0.451000
      5 O4          23.1110    16.6770    68.8380 os         1 60A      -0.474000
      6 C3          20.9670    16.4440    69.8750 c3         1 60A       0.156600
      7 C2          22.3510    18.5130    70.2250 c3         1 60A      -0.110100
      8 O9          23.0840    16.3720    66.5070 oh         1 60A      -0.668000
      9 O10         20.1670    12.9160    67.8090 oh         1 60A      -0.711000
     10 H1          18.6690    14.3290    67.4780 h1         1 60A       0.027200
     11 H2          18.2760    13.0790    68.6770 h1         1 60A       0.027200
     12 H3          20.0910    14.0030    70.1550 h1         1 60A       0.031200
     13 H4          18.7030    15.0770    69.8820 h1         1 60A       0.031200
     14 H5          21.4700    17.8590    68.3700 h1         1 60A       0.038700
     15 H6          24.7070    16.7500    67.6250 h2         1 60A       0.046700
     16 H7          23.5820    18.1360    67.4630 h2         1 60A       0.046700
     17 H8          21.4810    15.8550    70.6470 h1         1 60A       0.032200
     18 H9          20.1570    17.0040    70.3600 h1         1 60A       0.032200
     19 H10         21.4870    19.1110    70.5180 hc         1 60A       0.044367
     20 H11         22.7980    18.0780    71.1210 hc         1 60A       0.044367
     21 H12         23.0840    19.1740    69.7600 hc         1 60A       0.044367
     22 H13         22.2300    16.7720    66.2960 ho         1 60A       0.441000
     23 H14         19.8490    12.3800    67.0730 ho         1 60A       0.499000
     24 C6          23.6610    17.0530    67.6030 c3         1 60A       0.380600
@<TRIPOS>BOND
     1     1     2 1   
     2     1     9 1   
     3     1    10 1   
     4     1    11 1   
     5     2     4 1   
     6     2    12 1   
     7     2    13 1   
     8     3     5 1   
     9     3     6 1   
    10     3     7 1   
    11     3    14 1   
    12     4     6 1   
    13     5    24 1   
    14     6    17 1   
    15     6    18 1   
    16     7    19 1   
    17     7    20 1   
    18     7    21 1   
    19     8    22 1   
    20     8    24 1   
    21     9    23 1   
    22    15    24 1   
    23    16    24 1   
@<TRIPOS>SUBSTRUCTURE
     1 60A         1 TEMP              0 ****  ****    0 ROOT
