@<TRIPOS>MOLECULE
60A
   24    23     1     0     0
SMALL
No Charge or Current Charge


@<TRIPOS>ATOM
      1 C8          18.8920    13.5970    68.3670 c3         1 60A       0.162600
      2 C7          19.4570    14.5140    69.4860 c3         1 60A       0.161600
      3 C1          21.8850    17.3750    69.1030 c3         1 60A       0.166300
      4 O5          20.3580    15.4800    68.9050 os         1 60A      -0.451000
      5 O4          23.0530    16.6300    68.6750 os         1 60A      -0.474000
      6 C3          20.9410    16.3960    69.8530 c3         1 60A       0.156600
      7 C2          22.3430    18.5410    70.0110 c3         1 60A      -0.110100
      8 O9          23.2680    17.4070    66.4940 oh         1 60A      -0.668000
      9 O10         19.9090    12.7360    67.8160 oh         1 60A      -0.711000
     10 H1          18.4520    14.2250    67.5810 h1         1 60A       0.027200
     11 H2          18.0820    12.9910    68.7930 h1         1 60A       0.027200
     12 H3          19.9710    13.9000    70.2380 h1         1 60A       0.031200
     13 H4          18.6200    15.0240    69.9800 h1         1 60A       0.031200
     14 H5          21.3360    17.7890    68.2450 h1         1 60A       0.038700
     15 H6          24.8330    16.6640    67.5940 h2         1 60A       0.046700
     16 H7          24.2520    18.2610    68.0950 h2         1 60A       0.046700
     17 H8          21.5100    15.8570    70.6230 h1         1 60A       0.032200
     18 H9          20.1520    16.9720    70.3550 h1         1 60A       0.032200
     19 H10         21.4750    19.0330    70.4660 hc         1 60A       0.044367
     20 H11         22.9900    18.1770    70.8180 hc         1 60A       0.044367
     21 H12         22.8860    19.3030    69.4400 hc         1 60A       0.044367
     22 H13         22.8680    16.5270    66.3320 ho         1 60A       0.441000
     23 H14         19.4900    12.2360    67.0770 ho         1 60A       0.499000
     24 C6          23.9330    17.2730    67.7440 c3         1 60A       0.380600
@<TRIPOS>BOND
     1     1     2 1   
     2     1     9 1   
     3     1    10 1   
     4     1    11 1   
     5     2     4 1   
     6     2    12 1   
     7     2    13 1   
     8     3     5 1   
     9     3     6 1   
    10     3     7 1   
    11     3    14 1   
    12     4     6 1   
    13     5    24 1   
    14     6    17 1   
    15     6    18 1   
    16     7    19 1   
    17     7    20 1   
    18     7    21 1   
    19     8    22 1   
    20     8    24 1   
    21     9    23 1   
    22    15    24 1   
    23    16    24 1   
@<TRIPOS>SUBSTRUCTURE
     1 60A         1 TEMP              0 ****  ****    0 ROOT
