@<TRIPOS>MOLECULE
60B
   53    57     1     0     0
SMALL
No Charge or Current Charge


@<TRIPOS>ATOM
      1 C4         -53.4220     0.6670   -19.5610 ca         1 60B      -0.010600
      2 C5         -54.6180     1.4150   -19.6840 ca         1 60B       0.435900
      3 C11        -50.9180    -1.4050   -21.2330 c3         1 60B       0.099300
      4 C7         -54.7150     0.9730   -21.9460 ca         1 60B       0.594900
      5 C8         -53.5210     0.2220   -21.9170 ca         1 60B      -0.184000
      6 C9         -52.8900     0.0850   -20.6730 ca         1 60B      -0.028200
      7 C12        -49.4070    -1.0990   -21.1470 c3         1 60B      -0.107600
      8 C13        -51.2200    -2.9100   -21.0740 c3         1 60B      -0.107600
      9 N3         -52.6530     0.4080   -18.4310 nc         1 60B      -0.563100
     10 C1         -50.5790    -0.8860   -18.0210 c3         1 60B      -0.108400
     11 C2         -51.6560    -0.3530   -18.9260 cd         1 60B       0.427800
     12 N6         -55.2590     1.5660   -20.8770 nb         1 60B      -0.747000
     13 N10        -51.7410    -0.5770   -20.3190 na         1 60B      -0.191600
     14 N14        -55.4870     1.2280   -23.0450 nu         1 60B      -0.900800
     15 C15        -55.5280     0.7870   -24.3580 ca         1 60B       0.401900
     16 C16        -56.4650     1.3270   -25.2430 ca         1 60B      -0.283000
     17 C17        -56.4720     0.8370   -26.5580 ca         1 60B       0.140900
     18 N18        -55.6110    -0.1190   -26.9560 nb         1 60B      -0.207000
     19 C19        -54.7440    -0.5870   -26.0310 ca         1 60B       0.261500
     20 N20        -54.6740    -0.1700   -24.7490 nb         1 60B      -0.266000
     21 C21        -53.8040    -1.6210   -26.4600 cc         1 60B      -0.249500
     22 C22        -53.6520    -2.2410   -27.7050 cc         1 60B       0.318900
     23 N23        -52.6880    -3.1400   -27.7280 nd         1 60B      -0.493800
     24 N24        -52.1740    -3.1000   -26.4100 na         1 60B      -0.010400
     25 C25        -52.8690    -2.1630   -25.6260 cd         1 60B      -0.072000
     26 S26        -50.8570    -4.1240   -25.8720 s6         1 60B       1.306200
     27 O27        -50.0600    -4.5280   -27.0420 o          1 60B      -0.521000
     28 O28        -50.2430    -3.4900   -24.6940 o          1 60B      -0.521000
     29 C29        -51.7340    -5.6540   -25.2680 cx         1 60B      -0.455700
     30 C30        -51.1810    -6.4770   -24.1200 cx         1 60B      -0.059400
     31 C31        -52.4490    -5.6700   -23.9300 cx         1 60B      -0.059400
     32 H1         -55.0700     1.8970   -18.8180 h4         1 60B       0.036100
     33 H2         -51.2080    -1.1390   -22.2560 h1         1 60B       0.065700
     34 H3         -53.1060    -0.2200   -22.8100 ha         1 60B       0.157000
     35 H4         -49.2270    -0.0190   -21.2200 hc         1 60B       0.050033
     36 H5         -48.9730    -1.4630   -20.2100 hc         1 60B       0.050033
     37 H6         -48.8750    -1.5860   -21.9720 hc         1 60B       0.050033
     38 H7         -52.2890    -3.1030   -21.2220 hc         1 60B       0.050033
     39 H8         -50.6630    -3.4940   -21.8160 hc         1 60B       0.050033
     40 H9         -50.9410    -3.2690   -20.0780 hc         1 60B       0.050033
     41 H10        -50.8630    -0.7860   -16.9670 hc         1 60B       0.060033
     42 H11        -50.3870    -1.9470   -18.2090 hc         1 60B       0.060033
     43 H12        -49.6430    -0.3350   -18.1650 hc         1 60B       0.060033
     44 H13        -56.2340     1.8640   -22.7940 hn         1 60B       0.515000
     45 H14        -57.1640     2.0980   -24.9330 ha         1 60B       0.136000
     46 H15        -57.1730     1.2130   -27.3020 h4         1 60B       0.026100
     47 H16        -54.2240    -2.0610   -28.6060 h4         1 60B       0.058100
     48 H17        -52.6380    -1.9770   -24.5810 h4         1 60B       0.180000
     49 H18        -52.1920    -6.1490   -26.1210 h1         1 60B       0.149700
     50 H19        -51.2750    -7.5590   -24.1740 hc         1 60B       0.089950
     51 H20        -50.2830    -6.1290   -23.6110 hc         1 60B       0.089950
     52 H21        -52.3960    -4.7860   -23.2980 hc         1 60B       0.089950
     53 H22        -53.3880    -6.2160   -23.8590 hc         1 60B       0.089950
@<TRIPOS>BOND
     1     1     2 ar  
     2     1     6 ar  
     3     1     9 1   
     4     2    12 ar  
     5     2    32 1   
     6     3     7 1   
     7     3     8 1   
     8     3    13 1   
     9     3    33 1   
    10     4     5 ar  
    11     4    12 ar  
    12     4    14 1   
    13     5     6 ar  
    14     5    34 1   
    15     6    13 1   
    16     7    35 1   
    17     7    36 1   
    18     7    37 1   
    19     8    38 1   
    20     8    39 1   
    21     8    40 1   
    22     9    11 2   
    23    10    11 1   
    24    10    41 1   
    25    10    42 1   
    26    10    43 1   
    27    11    13 1   
    28    14    15 1   
    29    14    44 1   
    30    15    16 ar  
    31    15    20 ar  
    32    16    17 ar  
    33    16    45 1   
    34    17    18 ar  
    35    17    46 1   
    36    18    19 ar  
    37    19    20 ar  
    38    19    21 1   
    39    21    22 1   
    40    21    25 2   
    41    22    23 2   
    42    22    47 1   
    43    23    24 1   
    44    24    25 1   
    45    24    26 1   
    46    25    48 1   
    47    26    27 2   
    48    26    28 2   
    49    26    29 1   
    50    29    30 1   
    51    29    31 1   
    52    29    49 1   
    53    30    31 1   
    54    30    50 1   
    55    30    51 1   
    56    31    52 1   
    57    31    53 1   
@<TRIPOS>SUBSTRUCTURE
     1 60B         1 TEMP              0 ****  ****    0 ROOT
