@<TRIPOS>MOLECULE
60B
   53    57     1     0     0
SMALL
abcg2


@<TRIPOS>ATOM
      1 C4         -53.3410     0.7770   -19.6060 ca         1 60B      -0.010600
      2 C5         -54.4400     1.6200   -19.7090 ca         1 60B       0.435900
      3 C11        -51.1110    -1.5750   -21.2780 c3         1 60B       0.099300
      4 C7         -54.6930     1.0770   -21.9480 ca         1 60B       0.594900
      5 C8         -53.5990     0.2120   -21.9660 ca         1 60B      -0.184000
      6 C9         -52.9270     0.0820   -20.7580 ca         1 60B      -0.028200
      7 C12        -49.6050    -1.3370   -21.2870 c3         1 60B      -0.107600
      8 C13        -51.4870    -3.0280   -21.0060 c3         1 60B      -0.107600
      9 N3         -52.5170     0.4530   -18.5420 nc         1 60B      -0.563100
     10 C1         -50.5500    -0.9960   -18.2030 c3         1 60B      -0.108400
     11 C2         -51.6370    -0.3980   -19.0230 cd         1 60B       0.427800
     12 N6         -55.0960     1.7630   -20.8570 nb         1 60B      -0.747000
     13 N10        -51.8320    -0.6570   -20.3730 na         1 60B      -0.191600
     14 N14        -55.5010     1.3440   -23.0590 nu         1 60B      -0.900800
     15 C15        -55.5210     0.8150   -24.3140 ca         1 60B       0.401900
     16 C16        -56.5030     1.2600   -25.2270 ca         1 60B      -0.283000
     17 C17        -56.4930     0.6890   -26.4730 ca         1 60B       0.140900
     18 N18        -55.6040    -0.2520   -26.8460 nb         1 60B      -0.207000
     19 C19        -54.7140    -0.6030   -25.9190 ca         1 60B       0.261500
     20 N20        -54.6310    -0.1120   -24.6750 nb         1 60B      -0.266000
     21 C21        -53.7340    -1.6270   -26.2790 cc         1 60B      -0.249500
     22 C22        -53.6530    -2.3830   -27.4810 cc         1 60B       0.318900
     23 N23        -52.6400    -3.2280   -27.4650 nd         1 60B      -0.493800
     24 N24        -52.0390    -3.0150   -26.2590 na         1 60B      -0.010400
     25 C25        -52.6820    -2.0750   -25.5120 cd         1 60B      -0.072000
     26 S26        -50.7570    -4.0140   -25.7430 s6         1 60B       1.306200
     27 O27        -49.9340    -4.2420   -26.8950 o          1 60B      -0.521000
     28 O28        -50.2360    -3.3430   -24.5840 o          1 60B      -0.521000
     29 C29        -51.5580    -5.4970   -25.2880 cx         1 60B      -0.455700
     30 C30        -51.0560    -6.2290   -24.0660 cx         1 60B      -0.059400
     31 C31        -52.3790    -5.5370   -24.0290 cx         1 60B      -0.059400
     32 H1         -54.8000     2.1870   -18.8560 h4         1 60B       0.036100
     33 H2         -51.4830    -1.3120   -22.2670 h1         1 60B       0.065700
     34 H3         -53.3260    -0.3080   -22.8660 ha         1 60B       0.157000
     35 H4         -49.3790    -0.2760   -21.4040 hc         1 60B       0.050033
     36 H5         -49.1270    -1.7020   -20.3790 hc         1 60B       0.050033
     37 H6         -49.1740    -1.8760   -22.1310 hc         1 60B       0.050033
     38 H7         -52.5680    -3.1640   -21.0690 hc         1 60B       0.050033
     39 H8         -51.0140    -3.6680   -21.7520 hc         1 60B       0.050033
     40 H9         -51.1510    -3.3510   -20.0200 hc         1 60B       0.050033
     41 H10        -50.7510    -0.7790   -17.1560 hc         1 60B       0.060033
     42 H11        -50.4860    -2.0760   -18.3350 hc         1 60B       0.060033
     43 H12        -49.5800    -0.5700   -18.4660 hc         1 60B       0.060033
     44 H13        -56.2250     2.0180   -22.8540 hn         1 60B       0.515000
     45 H14        -57.2300     2.0110   -24.9500 ha         1 60B       0.136000
     46 H15        -57.2230     0.9850   -27.2180 h4         1 60B       0.026100
     47 H16        -54.3020    -2.3300   -28.3410 h4         1 60B       0.058100
     48 H17        -52.3410    -1.8040   -24.5300 h4         1 60B       0.180000
     49 H18        -51.8740    -6.0550   -26.1590 h1         1 60B       0.149700
     50 H19        -51.0240    -7.3060   -24.1500 hc         1 60B       0.089950
     51 H20        -50.2420    -5.7790   -23.5160 hc         1 60B       0.089950
     52 H21        -52.4510    -4.6270   -23.4500 hc         1 60B       0.089950
     53 H22        -53.2840    -6.1250   -24.0830 hc         1 60B       0.089950
@<TRIPOS>BOND
     1     1     2 ar  
     2     1     6 ar  
     3     1     9 1   
     4     2    12 ar  
     5     2    32 1   
     6     3     7 1   
     7     3     8 1   
     8     3    13 1   
     9     3    33 1   
    10     4     5 ar  
    11     4    12 ar  
    12     4    14 1   
    13     5     6 ar  
    14     5    34 1   
    15     6    13 1   
    16     7    35 1   
    17     7    36 1   
    18     7    37 1   
    19     8    38 1   
    20     8    39 1   
    21     8    40 1   
    22     9    11 2   
    23    10    11 1   
    24    10    41 1   
    25    10    42 1   
    26    10    43 1   
    27    11    13 1   
    28    14    15 1   
    29    14    44 1   
    30    15    16 ar  
    31    15    20 ar  
    32    16    17 ar  
    33    16    45 1   
    34    17    18 ar  
    35    17    46 1   
    36    18    19 ar  
    37    19    20 ar  
    38    19    21 1   
    39    21    22 1   
    40    21    25 2   
    41    22    23 2   
    42    22    47 1   
    43    23    24 1   
    44    24    25 1   
    45    24    26 1   
    46    25    48 1   
    47    26    27 2   
    48    26    28 2   
    49    26    29 1   
    50    29    30 1   
    51    29    31 1   
    52    29    49 1   
    53    30    31 1   
    54    30    50 1   
    55    30    51 1   
    56    31    52 1   
    57    31    53 1   
@<TRIPOS>SUBSTRUCTURE
     1 60B         1 TEMP              0 ****  ****    0 ROOT
