@<TRIPOS>MOLECULE
60D
   69    74     1     0     0
SMALL
abcg2


@<TRIPOS>ATOM
      1 C14        -55.5400     0.7670   -24.3710 ca         1 60D       0.401900
      2 C5         -51.4770    -0.3820   -19.1950 cc         1 60D      -0.117100
      3 C6         -52.3500     0.5270   -18.6390 cd         1 60D      -0.193400
      4 C7         -53.2850     0.8700   -19.6800 ca         1 60D      -0.138800
      5 C8         -52.9140     0.1220   -20.8230 ca         1 60D      -0.008200
      6 C9         -53.6280     0.1970   -22.0130 ca         1 60D      -0.196000
      7 C10        -54.7230     1.0550   -22.0060 ca         1 60D       0.596900
      8 C12        -54.4040     1.6950   -19.8030 ca         1 60D       0.437900
      9 C3         -51.9160    -2.9010   -21.4300 c3         1 60D      -0.109100
     10 C1         -49.6810    -1.7620   -21.0880 c3         1 60D      -0.109100
     11 N4         -51.8010    -0.6210   -20.5060 na         1 60D      -0.087700
     12 N11        -55.0990     1.7820   -20.9310 nb         1 60D      -0.748000
     13 N13        -55.5690     1.2610   -23.1010 nu         1 60D      -0.900800
     14 C15        -56.5440     1.1590   -25.2840 ca         1 60D      -0.283000
     15 C16        -56.4650     0.6370   -26.5500 ca         1 60D       0.140900
     16 N17        -55.4910    -0.2070   -26.9410 nb         1 60D      -0.208000
     17 C18        -54.5900    -0.5160   -26.0100 ca         1 60D       0.260500
     18 N19        -54.5740    -0.0720   -24.7470 nb         1 60D      -0.267000
     19 C20        -53.5050    -1.4220   -26.3870 cc         1 60D      -0.249500
     20 C21        -53.2300    -1.9900   -27.6620 cc         1 60D       0.320900
     21 N22        -52.1500    -2.7490   -27.6400 nd         1 60D      -0.498800
     22 N23        -51.7080    -2.6710   -26.3510 na         1 60D      -0.010400
     23 C24        -52.5070    -1.8980   -25.5670 cd         1 60D      -0.071000
     24 S25        -50.3980    -3.6360   -25.8360 s6         1 60D       1.305200
     25 O26        -49.3890    -3.5250   -26.8510 o          1 60D      -0.523000
     26 O27        -50.1390    -3.1930   -24.4940 o          1 60D      -0.523000
     27 C28        -51.0790    -5.2430   -25.8400 cx         1 60D      -0.452700
     28 C29        -50.6640    -6.1970   -24.7450 cx         1 60D      -0.059400
     29 C30        -52.0460    -5.6280   -24.7550 cx         1 60D      -0.059400
     30 C31        -52.3370     1.0810   -17.2770 c          1 60D       0.641300
     31 O32        -52.9790     2.1020   -16.9940 o          1 60D      -0.615100
     32 N33        -51.5830     0.4290   -16.3600 ns         1 60D      -0.504900
     33 C34        -51.4840     0.8400   -14.9690 c6         1 60D       0.113700
     34 C35        -52.6100     0.2550   -14.1100 c6         1 60D      -0.126900
     35 C36        -52.4040     0.6230   -12.6470 c6         1 60D       0.155600
     36 O37        -51.1290     0.1900   -12.1720 os         1 60D      -0.460000
     37 C38        -50.0620     0.7850   -12.9100 c6         1 60D       0.155600
     38 C39        -50.1300     0.4330   -14.3910 c6         1 60D      -0.126900
     39 H1         -50.6210    -0.8630   -18.7530 h4         1 60D       0.214000
     40 H2         -53.3740    -0.3660   -22.8920 ha         1 60D       0.155000
     41 H3         -54.7450     2.2960   -18.9690 h4         1 60D       0.047100
     42 H4         -52.9620    -2.7510   -21.7000 hc         1 60D       0.050867
     43 H5         -51.4660    -3.5760   -22.1570 hc         1 60D       0.050867
     44 H6         -51.8720    -3.3670   -20.4440 hc         1 60D       0.050867
     45 H7         -49.1610    -0.8040   -21.0460 hc         1 60D       0.050867
     46 H8         -49.5460    -2.2790   -20.1360 hc         1 60D       0.050867
     47 H9         -49.2220    -2.3710   -21.8660 hc         1 60D       0.050867
     48 H10        -51.2220    -1.1200   -22.4100 h1         1 60D       0.073700
     49 H11        -56.3240     1.8990   -22.8920 hn         1 60D       0.516000
     50 H12        -57.3340     1.8380   -24.9950 ha         1 60D       0.136000
     51 H13        -57.2060     0.8970   -27.2970 h4         1 60D       0.025100
     52 H14        -53.7830    -1.8600   -28.5780 h4         1 60D       0.058100
     53 H15        -52.3020    -1.7500   -24.5230 h4         1 60D       0.180000
     54 H16        -51.2190    -5.6070   -26.8480 h1         1 60D       0.150700
     55 H17        -50.5120    -7.2210   -25.0570 hc         1 60D       0.089700
     56 H18        -49.9780    -5.8300   -23.9950 hc         1 60D       0.089700
     57 H19        -52.2830    -4.8800   -24.0110 hc         1 60D       0.089700
     58 H20        -52.8720    -6.2510   -25.0670 hc         1 60D       0.089700
     59 H21        -51.1980    -0.4710   -16.5990 hn         1 60D       0.305500
     60 H22        -51.5670     1.9290   -14.9540 h1         1 60D       0.080700
     61 H23        -53.5780     0.6280   -14.4530 hc         1 60D       0.055950
     62 H24        -52.6120    -0.8340   -14.2150 hc         1 60D       0.055950
     63 H25        -52.4890     1.7110   -12.5160 h1         1 60D       0.049200
     64 H26        -53.1470     0.1420   -12.0110 h1         1 60D       0.049200
     65 H27        -49.1380     0.4190   -12.4640 h1         1 60D       0.049200
     66 H28        -50.0980     1.8760   -12.7830 h1         1 60D       0.049200
     67 H29        -49.9920    -0.6460   -14.5120 hc         1 60D       0.055950
     68 H30        -49.3210     0.9370   -14.9250 hc         1 60D       0.055950
     69 C2         -51.1550    -1.5770   -21.4220 c3         1 60D       0.093300
@<TRIPOS>BOND
     1     1    13 1   
     2     1    14 ar  
     3     1    18 ar  
     4     2     3 2   
     5     2    11 1   
     6     2    39 1   
     7     3     4 1   
     8     3    30 1   
     9     4     5 ar  
    10     4     8 ar  
    11     5     6 ar  
    12     5    11 1   
    13     6     7 ar  
    14     6    40 1   
    15     7    12 ar  
    16     7    13 1   
    17     8    12 ar  
    18     8    41 1   
    19     9    42 1   
    20     9    43 1   
    21     9    44 1   
    22     9    69 1   
    23    10    45 1   
    24    10    46 1   
    25    10    47 1   
    26    10    69 1   
    27    11    69 1   
    28    13    49 1   
    29    14    15 ar  
    30    14    50 1   
    31    15    16 ar  
    32    15    51 1   
    33    16    17 ar  
    34    17    18 ar  
    35    17    19 1   
    36    19    20 1   
    37    19    23 2   
    38    20    21 2   
    39    20    52 1   
    40    21    22 1   
    41    22    23 1   
    42    22    24 1   
    43    23    53 1   
    44    24    25 2   
    45    24    26 2   
    46    24    27 1   
    47    27    28 1   
    48    27    29 1   
    49    27    54 1   
    50    28    29 1   
    51    28    55 1   
    52    28    56 1   
    53    29    57 1   
    54    29    58 1   
    55    30    31 2   
    56    30    32 1   
    57    32    33 1   
    58    32    59 1   
    59    33    34 1   
    60    33    38 1   
    61    33    60 1   
    62    34    35 1   
    63    34    61 1   
    64    34    62 1   
    65    35    36 1   
    66    35    63 1   
    67    35    64 1   
    68    36    37 1   
    69    37    38 1   
    70    37    65 1   
    71    37    66 1   
    72    38    67 1   
    73    38    68 1   
    74    48    69 1   
@<TRIPOS>SUBSTRUCTURE
     1 60D         1 TEMP              0 ****  ****    0 ROOT
