@<TRIPOS>MOLECULE
60D
   69    74     1     0     0
SMALL
No Charge or Current Charge


@<TRIPOS>ATOM
      1 C14        -55.4040     0.8620   -24.5060 ca         1 60D       0.401900
      2 C5         -51.4030    -0.3200   -19.0320 cc         1 60D      -0.117100
      3 C6         -52.4510     0.4970   -18.6010 cd         1 60D      -0.193400
      4 C7         -53.3230     0.8080   -19.7190 ca         1 60D      -0.138800
      5 C8         -52.7840     0.1770   -20.8000 ca         1 60D      -0.008200
      6 C9         -53.4200     0.2830   -22.0430 ca         1 60D      -0.196000
      7 C10        -54.6010     1.0540   -22.0880 ca         1 60D       0.596900
      8 C12        -54.5010     1.5680   -19.8380 ca         1 60D       0.437900
      9 C3         -51.3410    -2.7660   -21.4100 c3         1 60D      -0.109100
     10 C1         -49.3190    -1.2420   -21.0760 c3         1 60D      -0.109100
     11 N4         -51.6310    -0.4970   -20.4140 na         1 60D      -0.087700
     12 N11        -55.1360     1.6880   -21.0350 nb         1 60D      -0.748000
     13 N13        -55.3750     1.2910   -23.1880 nu         1 60D      -0.900800
     14 C15        -56.3610     1.3850   -25.3800 ca         1 60D      -0.283000
     15 C16        -56.3560     0.9150   -26.7020 ca         1 60D       0.140900
     16 N17        -55.4660    -0.0060   -27.1160 nb         1 60D      -0.208000
     17 C18        -54.5790    -0.4580   -26.2020 ca         1 60D       0.260500
     18 N19        -54.5190    -0.0590   -24.9120 nb         1 60D      -0.267000
     19 C20        -53.6130    -1.4590   -26.6520 cc         1 60D      -0.249500
     20 C21        -53.4260    -2.0200   -27.9190 cc         1 60D       0.320900
     21 N22        -52.4470    -2.9020   -27.9630 nd         1 60D      -0.498800
     22 N23        -51.9600    -2.9130   -26.6340 na         1 60D      -0.010400
     23 C24        -52.6860    -2.0220   -25.8230 cd         1 60D      -0.071000
     24 S25        -50.6390    -3.9420   -26.1160 s6         1 60D       1.305200
     25 O26        -49.8000    -4.2600   -27.2830 o          1 60D      -0.523000
     26 O27        -50.0720    -3.3670   -24.8860 o          1 60D      -0.523000
     27 C28        -51.5010    -5.5220   -25.6340 cx         1 60D      -0.452700
     28 C29        -50.9650    -6.4030   -24.5210 cx         1 60D      -0.059400
     29 C30        -52.2570    -5.6360   -24.3230 cx         1 60D      -0.059400
     30 C31        -52.6530     0.9730   -17.2010 c          1 60D       0.641300
     31 O32        -53.5830     1.6850   -16.8510 o          1 60D      -0.615100
     32 N33        -51.6890     0.5410   -16.3180 ns         1 60D      -0.504900
     33 C34        -51.6510     0.8370   -14.8830 c6         1 60D       0.113700
     34 C35        -52.5790    -0.1250   -14.1000 c6         1 60D      -0.126900
     35 C36        -52.4460     0.1130   -12.5770 c6         1 60D       0.155600
     36 O37        -51.0650    -0.0320   -12.1800 os         1 60D      -0.460000
     37 C38        -50.1730     0.9090   -12.8150 c6         1 60D       0.155600
     38 C39        -50.2040     0.7050   -14.3480 c6         1 60D      -0.126900
     39 H1         -50.5650    -0.7700   -18.5100 h4         1 60D       0.214000
     40 H2         -53.0190    -0.2010   -22.9210 ha         1 60D       0.155000
     41 H3         -54.9480     2.0820   -18.9880 h4         1 60D       0.047100
     42 H4         -52.3970    -2.7980   -21.7040 hc         1 60D       0.050867
     43 H5         -50.7660    -3.3520   -22.1360 hc         1 60D       0.050867
     44 H6         -51.2430    -3.2440   -20.4270 hc         1 60D       0.050867
     45 H7         -48.9780    -0.2000   -21.0430 hc         1 60D       0.050867
     46 H8         -49.0730    -1.7190   -20.1200 hc         1 60D       0.050867
     47 H9         -48.7570    -1.7570   -21.8650 hc         1 60D       0.050867
     48 H10        -50.9740    -0.8810   -22.3630 h1         1 60D       0.073700
     49 H11        -56.1250     1.9250   -22.9390 hn         1 60D       0.516000
     50 H12        -57.0830     2.1280   -25.0570 ha         1 60D       0.136000
     51 H13        -57.0710     1.2790   -27.4380 h4         1 60D       0.025100
     52 H14        -53.9830    -1.8100   -28.8230 h4         1 60D       0.058100
     53 H15        -52.4790    -1.8780   -24.7670 h4         1 60D       0.180000
     54 H16        -51.9210    -5.9730   -26.5300 h1         1 60D       0.150700
     55 H17        -51.0330    -7.4820   -24.6450 hc         1 60D       0.089700
     56 H18        -50.0920    -6.0680   -23.9630 hc         1 60D       0.089700
     57 H19        -52.2430    -4.7910   -23.6370 hc         1 60D       0.089700
     58 H20        -53.1850    -6.2040   -24.3160 hc         1 60D       0.089700
     59 H21        -50.9590    -0.0410   -16.7030 hn         1 60D       0.305500
     60 H22        -51.9930     1.8730   -14.7280 h1         1 60D       0.080700
     61 H23        -53.6230     0.0220   -14.4060 hc         1 60D       0.055950
     62 H24        -52.3260    -1.1690   -14.3300 hc         1 60D       0.055950
     63 H25        -52.7980     1.1210   -12.3130 h1         1 60D       0.049200
     64 H26        -53.0550    -0.6180   -12.0270 h1         1 60D       0.049200
     65 H27        -49.1530     0.7490   -12.4350 h1         1 60D       0.049200
     66 H28        -50.4780     1.9340   -12.5570 h1         1 60D       0.049200
     67 H29        -49.7970    -0.2860   -14.5910 hc         1 60D       0.055950
     68 H30        -49.5530     1.4440   -14.8340 hc         1 60D       0.055950
     69 C2         -50.8350    -1.3100   -21.3630 c3         1 60D       0.093300
@<TRIPOS>BOND
     1     1    13 1   
     2     1    14 ar  
     3     1    18 ar  
     4     2     3 2   
     5     2    11 1   
     6     2    39 1   
     7     3     4 1   
     8     3    30 1   
     9     4     5 ar  
    10     4     8 ar  
    11     5     6 ar  
    12     5    11 1   
    13     6     7 ar  
    14     6    40 1   
    15     7    12 ar  
    16     7    13 1   
    17     8    12 ar  
    18     8    41 1   
    19     9    42 1   
    20     9    43 1   
    21     9    44 1   
    22     9    69 1   
    23    10    45 1   
    24    10    46 1   
    25    10    47 1   
    26    10    69 1   
    27    11    69 1   
    28    13    49 1   
    29    14    15 ar  
    30    14    50 1   
    31    15    16 ar  
    32    15    51 1   
    33    16    17 ar  
    34    17    18 ar  
    35    17    19 1   
    36    19    20 1   
    37    19    23 2   
    38    20    21 2   
    39    20    52 1   
    40    21    22 1   
    41    22    23 1   
    42    22    24 1   
    43    23    53 1   
    44    24    25 2   
    45    24    26 2   
    46    24    27 1   
    47    27    28 1   
    48    27    29 1   
    49    27    54 1   
    50    28    29 1   
    51    28    55 1   
    52    28    56 1   
    53    29    57 1   
    54    29    58 1   
    55    30    31 2   
    56    30    32 1   
    57    32    33 1   
    58    32    59 1   
    59    33    34 1   
    60    33    38 1   
    61    33    60 1   
    62    34    35 1   
    63    34    61 1   
    64    34    62 1   
    65    35    36 1   
    66    35    63 1   
    67    35    64 1   
    68    36    37 1   
    69    37    38 1   
    70    37    65 1   
    71    37    66 1   
    72    38    67 1   
    73    38    68 1   
    74    48    69 1   
@<TRIPOS>SUBSTRUCTURE
     1 60D         1 TEMP              0 ****  ****    0 ROOT
