@<TRIPOS>MOLECULE
60E
   72    77     1     0     0
SMALL
No Charge or Current Charge


@<TRIPOS>ATOM
      1 C4         -48.7790    -0.6200   -21.2220 c3         1 60E      -0.097100
      2 C6         -52.2900     0.4770   -20.7690 ca         1 60E       0.043800
      3 C11        -52.7640     1.1280   -19.6840 ca         1 60E      -0.338900
      4 C7         -52.9960     0.5200   -21.9700 ca         1 60E      -0.216000
      5 C8         -54.1960     1.2570   -21.9530 ca         1 60E       0.615900
      6 C10        -53.9390     1.8740   -19.7400 ca         1 60E       0.458900
      7 C12        -51.8050     0.8780   -18.6550 cc         1 60E       0.598800
      8 C3         -50.2810    -0.9780   -21.2890 c3         1 60E       0.122300
      9 C2         -50.5180    -2.4920   -21.0410 c3         1 60E      -0.093400
     10 N5         -51.1010    -0.1220   -20.3930 na         1 60E       0.062600
     11 N9         -54.6610     1.9310   -20.8890 nb         1 60E      -0.771000
     12 N13        -50.7760     0.1260   -19.0540 nd         1 60E      -0.580100
     13 N14        -51.9670     1.3830   -17.3920 nn         1 60E      -0.691600
     14 C15        -51.0840     1.0070   -16.2550 cy         1 60E       0.196800
     15 C16        -52.2580     1.5140   -15.3500 cy         1 60E      -0.093700
     16 C17        -53.1840     1.1630   -16.5650 cy         1 60E       0.196800
     17 C18        -52.5100     0.8510   -13.9770 c3         1 60E       0.184000
     18 C19        -51.3420     1.1480   -13.0090 c3         1 60E      -0.117100
     19 C20        -53.8460     1.3410   -13.3760 c3         1 60E      -0.117100
     20 O21        -52.5990    -0.5670   -14.1170 oh         1 60E      -0.666000
     21 N22        -55.0520     1.4190   -23.0040 nu         1 60E      -0.900800
     22 C23        -55.2280     0.8140   -24.2380 ca         1 60E       0.399900
     23 C24        -56.2360     1.2600   -25.0980 ca         1 60E      -0.284000
     24 C25        -56.3790     0.5970   -26.3270 ca         1 60E       0.139900
     25 N26        -55.5800    -0.4330   -26.6670 nb         1 60E      -0.208000
     26 C27        -54.6400    -0.8010   -25.7690 ca         1 60E       0.262500
     27 N28        -54.4360    -0.2140   -24.5710 nb         1 60E      -0.261000
     28 C29        -53.7540    -1.9040   -26.1380 cc         1 60E      -0.253500
     29 C30        -53.8510    -2.8300   -27.1810 cc         1 60E       0.317900
     30 N31        -52.8700    -3.7110   -27.1920 nd         1 60E      -0.497800
     31 N32        -52.0800    -3.3330   -26.0800 na         1 60E      -0.012400
     32 C33        -52.6300    -2.2160   -25.4280 cd         1 60E      -0.066000
     33 S34        -50.6320    -4.1970   -25.6030 s6         1 60E       1.304200
     34 O35        -49.7790    -3.2660   -24.8460 o          1 60E      -0.520500
     35 O36        -50.1220    -4.9520   -26.7600 o          1 60E      -0.520500
     36 C37        -51.2670    -5.4370   -24.3640 cx         1 60E      -0.461700
     37 C38        -51.8720    -6.7540   -24.8140 cx         1 60E      -0.051900
     38 C39        -50.5300    -6.7380   -24.1100 cx         1 60E      -0.051900
     39 H1         -48.6290     0.4470   -21.4290 hc         1 60E       0.049700
     40 H2         -48.3650    -0.8400   -20.2300 hc         1 60E       0.049700
     41 H3         -48.2120    -1.1930   -21.9650 hc         1 60E       0.049700
     42 H4         -52.6340     0.0230   -22.8570 ha         1 60E       0.159000
     43 H5         -54.3190     2.4290   -18.8840 h4         1 60E       0.020100
     44 H6         -50.5960    -0.7690   -22.3180 h1         1 60E       0.057700
     45 H7         -52.0620    -4.0330   -21.1040 hc         1 60E       0.031700
     46 H8         -52.6430    -2.4710   -20.4990 hc         1 60E       0.031700
     47 H9         -52.3410    -2.6940   -22.2380 hc         1 60E       0.031700
     48 H10        -50.1960    -2.7480   -20.0240 hc         1 60E       0.060700
     49 H11        -49.8850    -3.0680   -21.7260 hc         1 60E       0.060700
     50 H12        -50.8840    -0.0680   -16.1640 h1         1 60E       0.064200
     51 H13        -50.1500     1.5740   -16.1610 h1         1 60E       0.064200
     52 H14        -52.2010     2.5970   -15.1840 hc         1 60E       0.069700
     53 H15        -54.0150     1.8610   -16.7170 h1         1 60E       0.064200
     54 H16        -53.5530     0.1300   -16.5610 h1         1 60E       0.064200
     55 H17        -51.5140     0.6870   -12.0290 hc         1 60E       0.043700
     56 H18        -50.3950     0.7610   -13.4040 hc         1 60E       0.043700
     57 H19        -51.2290     2.2280   -12.8570 hc         1 60E       0.043700
     58 H20        -54.0330     0.8810   -12.3980 hc         1 60E       0.043700
     59 H21        -53.8350     2.4290   -13.2380 hc         1 60E       0.043700
     60 H22        -54.6890     1.0920   -14.0330 hc         1 60E       0.043700
     61 H23        -52.7550    -0.9330   -13.2200 ho         1 60E       0.441000
     62 H24        -55.7730     2.0860   -22.7540 hn         1 60E       0.515000
     63 H25        -56.8860     2.0880   -24.8330 ha         1 60E       0.135000
     64 H26        -57.1390     0.8920   -27.0480 h4         1 60E       0.025100
     65 H27        -54.6210    -2.8920   -27.9400 h4         1 60E       0.056100
     66 H28        -52.1830    -1.7630   -24.5490 h4         1 60E       0.185000
     67 H29        -51.7160    -4.9030   -23.5300 h1         1 60E       0.134700
     68 H30        -52.7270    -7.1390   -24.2610 hc         1 60E       0.092700
     69 H31        -51.8810    -6.9900   -25.8760 hc         1 60E       0.092700
     70 H32        -50.4910    -7.1120   -23.0890 hc         1 60E       0.092700
     71 H33        -49.6470    -6.9640   -24.7060 hc         1 60E       0.092700
     72 C1         -51.9820    -2.9470   -21.2330 c3         1 60E      -0.086100
@<TRIPOS>BOND
     1     1     8 1   
     2     1    39 1   
     3     1    40 1   
     4     1    41 1   
     5     2     3 ar  
     6     2     4 ar  
     7     2    10 1   
     8     3     6 ar  
     9     3     7 1   
    10     4     5 ar  
    11     4    42 1   
    12     5    11 ar  
    13     5    21 1   
    14     6    11 ar  
    15     6    43 1   
    16     7    12 2   
    17     7    13 1   
    18     8     9 1   
    19     8    10 1   
    20     8    44 1   
    21     9    48 1   
    22     9    49 1   
    23     9    72 1   
    24    10    12 1   
    25    13    14 1   
    26    13    16 1   
    27    14    15 1   
    28    14    50 1   
    29    14    51 1   
    30    15    16 1   
    31    15    17 1   
    32    15    52 1   
    33    16    53 1   
    34    16    54 1   
    35    17    18 1   
    36    17    19 1   
    37    17    20 1   
    38    18    55 1   
    39    18    56 1   
    40    18    57 1   
    41    19    58 1   
    42    19    59 1   
    43    19    60 1   
    44    20    61 1   
    45    21    22 1   
    46    21    62 1   
    47    22    23 ar  
    48    22    27 ar  
    49    23    24 ar  
    50    23    63 1   
    51    24    25 ar  
    52    24    64 1   
    53    25    26 ar  
    54    26    27 ar  
    55    26    28 1   
    56    28    29 1   
    57    28    32 2   
    58    29    30 2   
    59    29    65 1   
    60    30    31 1   
    61    31    32 1   
    62    31    33 1   
    63    32    66 1   
    64    33    34 2   
    65    33    35 2   
    66    33    36 1   
    67    36    37 1   
    68    36    38 1   
    69    36    67 1   
    70    37    38 1   
    71    37    68 1   
    72    37    69 1   
    73    38    70 1   
    74    38    71 1   
    75    45    72 1   
    76    46    72 1   
    77    47    72 1   
@<TRIPOS>SUBSTRUCTURE
     1 60E         1 TEMP              0 ****  ****    0 ROOT
