@<TRIPOS>MOLECULE
60E
   72    77     1     0     0
SMALL
abcg2


@<TRIPOS>ATOM
      1 C4         -48.9910    -0.3880   -21.3720 c3         1 60E      -0.097100
      2 C6         -52.3950     0.6830   -20.7950 ca         1 60E       0.043800
      3 C11        -52.8050     1.4670   -19.6890 ca         1 60E      -0.338900
      4 C7         -53.1770     0.6170   -21.9520 ca         1 60E      -0.216000
      5 C8         -54.3450     1.3630   -21.9330 ca         1 60E       0.615900
      6 C10        -53.9880     2.1920   -19.8020 ca         1 60E       0.458900
      7 C12        -51.7740     1.2640   -18.7070 cc         1 60E       0.598800
      8 C3         -50.4360    -0.8540   -21.2280 c3         1 60E       0.122300
      9 C2         -50.5410    -2.2550   -20.6170 c3         1 60E      -0.093400
     10 N5         -51.2200     0.1130   -20.4650 na         1 60E       0.062600
     11 N9         -54.7400     2.1460   -20.8920 nb         1 60E      -0.771000
     12 N13        -50.8450     0.4470   -19.1740 nd         1 60E      -0.580100
     13 N14        -51.6930     1.8310   -17.4680 nn         1 60E      -0.691600
     14 C15        -50.8820     1.2600   -16.3760 cy         1 60E       0.196800
     15 C16        -51.9720     1.7060   -15.3720 cy         1 60E      -0.093700
     16 C17        -52.8620     2.0550   -16.5890 cy         1 60E       0.196800
     17 C18        -52.4920     0.6710   -14.3820 c3         1 60E       0.184000
     18 C19        -51.3870     0.2850   -13.4000 c3         1 60E      -0.117100
     19 C20        -53.7170     1.2120   -13.6450 c3         1 60E      -0.117100
     20 O21        -52.8720    -0.4860   -15.1570 oh         1 60E      -0.666000
     21 N22        -55.2570     1.4200   -22.9890 nu         1 60E      -0.900800
     22 C23        -55.3430     0.6970   -24.1430 ca         1 60E       0.399900
     23 C24        -56.3890     0.9690   -25.0500 ca         1 60E      -0.284000
     24 C25        -56.4310     0.2090   -26.1910 ca         1 60E       0.139900
     25 N26        -55.5380    -0.7620   -26.4630 nb         1 60E      -0.208000
     26 C27        -54.5910    -0.9470   -25.5450 ca         1 60E       0.262500
     27 N28        -54.4510    -0.2600   -24.4040 nb         1 60E      -0.261000
     28 C29        -53.6070    -2.0010   -25.7890 cc         1 60E      -0.253500
     29 C30        -53.4900    -2.8490   -26.9250 cc         1 60E       0.317900
     30 N31        -52.4800    -3.6900   -26.8110 nd         1 60E      -0.497800
     31 N32        -51.9240    -3.3900   -25.6010 na         1 60E      -0.012400
     32 C33        -52.5840    -2.3890   -24.9540 cd         1 60E      -0.066000
     33 S34        -50.6370    -4.3260   -24.9860 s6         1 60E       1.304200
     34 O35        -50.1580    -3.5680   -23.8630 o          1 60E      -0.520500
     35 O36        -49.7750    -4.6160   -26.0960 o          1 60E      -0.520500
     36 C37        -51.4310    -5.7790   -24.4390 cx         1 60E      -0.461700
     37 C38        -51.7650    -6.8620   -25.4280 cx         1 60E      -0.051900
     38 C39        -50.6450    -7.0680   -24.4620 cx         1 60E      -0.051900
     39 H1         -48.9490     0.6120   -21.8060 hc         1 60E       0.049700
     40 H2         -48.4920    -0.3670   -20.4030 hc         1 60E       0.049700
     41 H3         -48.4490    -1.0730   -22.0250 hc         1 60E       0.049700
     42 H4         -52.9150     0.0240   -22.8090 ha         1 60E       0.159000
     43 H5         -54.3400     2.8280   -18.9980 h4         1 60E       0.020100
     44 H6         -50.8970    -0.8730   -22.2160 h1         1 60E       0.057700
     45 H7         -51.9930    -3.7910   -20.1360 hc         1 60E       0.031700
     46 H8         -52.6050    -2.1470   -19.9400 hc         1 60E       0.031700
     47 H9         -52.4120    -2.8290   -21.5570 hc         1 60E       0.031700
     48 H10        -50.1050    -2.2300   -19.6150 hc         1 60E       0.060700
     49 H11        -49.9230    -2.9220   -21.2210 hc         1 60E       0.060700
     50 H12        -50.7780     0.1760   -16.4550 h1         1 60E       0.064200
     51 H13        -49.8970     1.7150   -16.2700 h1         1 60E       0.064200
     52 H14        -51.6770     2.5960   -14.8160 hc         1 60E       0.069700
     53 H15        -53.2620     3.0680   -16.6310 h1         1 60E       0.064200
     54 H16        -53.6650     1.3340   -16.7610 h1         1 60E       0.064200
     55 H17        -51.7450    -0.4840   -12.7120 hc         1 60E       0.043700
     56 H18        -50.5200    -0.1080   -13.9340 hc         1 60E       0.043700
     57 H19        -51.0720     1.1490   -12.8120 hc         1 60E       0.043700
     58 H20        -54.1080     0.4540   -12.9610 hc         1 60E       0.043700
     59 H21        -53.4600     2.0980   -13.0610 hc         1 60E       0.043700
     60 H22        -54.5040     1.4760   -14.3520 hc         1 60E       0.043700
     61 H23        -53.1940    -1.1590   -14.5440 ho         1 60E       0.441000
     62 H24        -56.0000     2.0840   -22.8260 hn         1 60E       0.515000
     63 H25        -57.1190     1.7420   -24.8530 ha         1 60E       0.135000
     64 H26        -57.2070     0.3720   -26.9300 h4         1 60E       0.025100
     65 H27        -54.1060    -2.8590   -27.8100 h4         1 60E       0.056100
     66 H28        -52.2780    -2.0430   -23.9840 h4         1 60E       0.185000
     67 H29        -52.0980    -5.5700   -23.6130 h1         1 60E       0.134700
     68 H30        -52.7050    -7.3690   -25.2620 hc         1 60E       0.092700
     69 H31        -51.5060    -6.6870   -26.4620 hc         1 60E       0.092700
     70 H32        -50.7940    -7.7140   -23.6080 hc         1 60E       0.092700
     71 H33        -49.6370    -7.0330   -24.8490 hc         1 60E       0.092700
     72 C1         -51.9700    -2.7840   -20.5590 c3         1 60E      -0.086100
@<TRIPOS>BOND
     1     1     8 1   
     2     1    39 1   
     3     1    40 1   
     4     1    41 1   
     5     2     3 ar  
     6     2     4 ar  
     7     2    10 1   
     8     3     6 ar  
     9     3     7 1   
    10     4     5 ar  
    11     4    42 1   
    12     5    11 ar  
    13     5    21 1   
    14     6    11 ar  
    15     6    43 1   
    16     7    12 2   
    17     7    13 1   
    18     8     9 1   
    19     8    10 1   
    20     8    44 1   
    21     9    48 1   
    22     9    49 1   
    23     9    72 1   
    24    10    12 1   
    25    13    14 1   
    26    13    16 1   
    27    14    15 1   
    28    14    50 1   
    29    14    51 1   
    30    15    16 1   
    31    15    17 1   
    32    15    52 1   
    33    16    53 1   
    34    16    54 1   
    35    17    18 1   
    36    17    19 1   
    37    17    20 1   
    38    18    55 1   
    39    18    56 1   
    40    18    57 1   
    41    19    58 1   
    42    19    59 1   
    43    19    60 1   
    44    20    61 1   
    45    21    22 1   
    46    21    62 1   
    47    22    23 ar  
    48    22    27 ar  
    49    23    24 ar  
    50    23    63 1   
    51    24    25 ar  
    52    24    64 1   
    53    25    26 ar  
    54    26    27 ar  
    55    26    28 1   
    56    28    29 1   
    57    28    32 2   
    58    29    30 2   
    59    29    65 1   
    60    30    31 1   
    61    31    32 1   
    62    31    33 1   
    63    32    66 1   
    64    33    34 2   
    65    33    35 2   
    66    33    36 1   
    67    36    37 1   
    68    36    38 1   
    69    36    67 1   
    70    37    38 1   
    71    37    68 1   
    72    37    69 1   
    73    38    70 1   
    74    38    71 1   
    75    45    72 1   
    76    46    72 1   
    77    47    72 1   
@<TRIPOS>SUBSTRUCTURE
     1 60E         1 TEMP              0 ****  ****    0 ROOT
