@<TRIPOS>MOLECULE
60F
   30    30     1     0     0
SMALL
No Charge or Current Charge


@<TRIPOS>ATOM
      1 C1          12.2610     2.8670   -19.8400 c          1 60F       0.584900
      2 C2          13.2890     2.0840   -19.0970 ce         1 60F      -0.267200
      3 C3          14.0400     1.0780   -19.6360 cf         1 60F      -0.117200
      4 O1          11.9690     2.6660   -21.0110 o          1 60F      -0.533100
      5 C7          15.0780     0.2390   -19.0010 ca         1 60F      -0.089800
      6 C6          15.4410     0.4010   -17.6460 ca         1 60F      -0.054000
      7 C5          16.4340    -0.4130   -17.0710 ca         1 60F      -0.183500
      8 C4          17.0720    -1.3950   -17.8440 ca         1 60F       0.137100
      9 O4          18.0340    -2.1860   -17.2920 oh         1 60F      -0.537100
     10 C9          16.7200    -1.5640   -19.1890 ca         1 60F      -0.183500
     11 C8          15.7290    -0.7520   -19.7670 ca         1 60F      -0.054000
     12 N           12.1590     6.1500   -21.2200 n8         1 60F      -0.994200
     13 CA          10.8690     6.3050   -20.4410 c3         1 60F       0.008500
     14 CB          10.3090     4.9410   -19.9470 c3         1 60F       0.111600
     15 SG          11.4550     4.0870   -18.7570 ss         1 60F      -0.350600
     16 C           10.8740     7.3440   -19.2480 c          1 60F       0.698000
     17 O            9.7980     7.7780   -18.8590 o          1 60F      -0.727500
     18 H1          13.4190     2.3650   -18.0560 ha         1 60F       0.195000
     19 H2          13.8630     0.8410   -20.6880 ha         1 60F       0.187000
     20 H3          14.9600     1.1540   -17.0280 ha         1 60F       0.119000
     21 H4          16.6990    -0.2740   -16.0260 ha         1 60F       0.116500
     22 H5          18.1460    -1.9270   -16.3530 ho         1 60F       0.463000
     23 H6          17.2150    -2.3240   -19.7880 ha         1 60F       0.116500
     24 H7          15.4670    -0.8950   -20.8130 ha         1 60F       0.119000
     25 H11         10.1320     6.6990   -21.1540 h1         1 60F       0.046700
     26 H12          9.3570     5.1200   -19.4320 h1         1 60F       0.071700
     27 H13         10.0930     4.2900   -20.8030 h1         1 60F       0.071700
     28 O2          11.9490     7.7580   -18.8310 o          1 60F      -0.727500
     29 H8          12.4730     7.0790   -21.5260 hn         1 60F       0.386000
     30 H9          12.8940     5.8710   -20.5590 hn         1 60F       0.386000
@<TRIPOS>BOND
     1     1     2 1   
     2     1     4 2   
     3     1    15 1   
     4     2     3 2   
     5     2    18 1   
     6     3     5 1   
     7     3    19 1   
     8     5     6 ar  
     9     5    11 ar  
    10     6     7 ar  
    11     6    20 1   
    12     7     8 ar  
    13     7    21 1   
    14     8     9 1   
    15     8    10 ar  
    16     9    22 1   
    17    10    11 ar  
    18    10    23 1   
    19    11    24 1   
    20    12    13 1   
    21    12    29 1   
    22    12    30 1   
    23    13    14 1   
    24    13    16 1   
    25    13    25 1   
    26    14    15 1   
    27    14    26 1   
    28    14    27 1   
    29    16    17 1   
    30    16    28 1   
@<TRIPOS>SUBSTRUCTURE
     1 60F         1 TEMP              0 ****  ****    0 ROOT
