@<TRIPOS>MOLECULE
60F
   30    30     1     0     0
SMALL
abcg2


@<TRIPOS>ATOM
      1 C1          12.4170     2.9150   -19.8610 c          1 60F       0.584900
      2 C2          13.4030     2.1720   -19.0700 ce         1 60F      -0.267200
      3 C3          14.0890     1.1550   -19.6160 cf         1 60F      -0.117200
      4 O1          12.1830     2.7260   -21.0320 o          1 60F      -0.533100
      5 C7          15.0750     0.3080   -18.9710 ca         1 60F      -0.089800
      6 C6          15.4910     0.4730   -17.6450 ca         1 60F      -0.054000
      7 C5          16.4230    -0.3710   -17.0770 ca         1 60F      -0.183500
      8 C4          16.9740    -1.4160   -17.8250 ca         1 60F       0.137100
      9 O4          17.8800    -2.2660   -17.3230 oh         1 60F      -0.537100
     10 C9          16.5750    -1.5950   -19.1500 ca         1 60F      -0.183500
     11 C8          15.6420    -0.7410   -19.7040 ca         1 60F      -0.054000
     12 N           12.0580     6.2370   -21.2330 n8         1 60F      -0.994200
     13 CA          10.8420     6.2970   -20.4400 c3         1 60F       0.008500
     14 CB          10.4080     4.8940   -20.0340 c3         1 60F       0.111600
     15 SG          11.5690     4.1190   -18.8680 ss         1 60F      -0.350600
     16 C           10.8650     7.2430   -19.2040 c          1 60F       0.698000
     17 O            9.8160     7.2650   -18.5280 o          1 60F      -0.727500
     18 H1          13.5370     2.4660   -18.0350 ha         1 60F       0.195000
     19 H2          13.8900     0.9150   -20.6570 ha         1 60F       0.187000
     20 H3          15.0850     1.2710   -17.0370 ha         1 60F       0.119000
     21 H4          16.7280    -0.2220   -16.0480 ha         1 60F       0.116500
     22 H5          18.0800    -2.0490   -16.4050 ho         1 60F       0.463000
     23 H6          16.9980    -2.4010   -19.7360 ha         1 60F       0.116500
     24 H7          15.3400    -0.8910   -20.7340 ha         1 60F       0.119000
     25 H11         10.0440     6.6640   -21.0990 h1         1 60F       0.046700
     26 H12          9.4460     4.9240   -19.5290 h1         1 60F       0.071700
     27 H13         10.3240     4.2380   -20.8990 h1         1 60F       0.071700
     28 O2          11.9040     7.8960   -19.0010 o          1 60F      -0.727500
     29 H8          12.2840     7.1750   -21.5400 hn         1 60F       0.386000
     30 H9          12.8270     5.9870   -20.6200 hn         1 60F       0.386000
@<TRIPOS>BOND
     1     1     2 1   
     2     1     4 2   
     3     1    15 1   
     4     2     3 2   
     5     2    18 1   
     6     3     5 1   
     7     3    19 1   
     8     5     6 ar  
     9     5    11 ar  
    10     6     7 ar  
    11     6    20 1   
    12     7     8 ar  
    13     7    21 1   
    14     8     9 1   
    15     8    10 ar  
    16     9    22 1   
    17    10    11 ar  
    18    10    23 1   
    19    11    24 1   
    20    12    13 1   
    21    12    29 1   
    22    12    30 1   
    23    13    14 1   
    24    13    16 1   
    25    13    25 1   
    26    14    15 1   
    27    14    26 1   
    28    14    27 1   
    29    16    17 1   
    30    16    28 1   
@<TRIPOS>SUBSTRUCTURE
     1 60F         1 TEMP              0 ****  ****    0 ROOT
