@<TRIPOS>MOLECULE
60G
   46    47     1     0     0
SMALL
abcg2


@<TRIPOS>ATOM
      1 C2          -3.5390     0.2300    -0.0090 ca         1 60G       0.335900
      2 C4          -5.7030     0.7800    -0.2710 ca         1 60G       0.402300
      3 C5          -6.0470    -0.5590    -0.4120 ca         1 60G      -0.307000
      4 C6          -4.9860    -1.4490    -0.3270 ca         1 60G       0.402300
      5 CAA          5.3190     3.3990    -0.9440 c3         1 60G       0.153900
      6 OAR          5.3080     2.0400    -0.5030 os         1 60G      -0.424100
      7 OAE          3.6720     1.5600    -1.9400 o          1 60G      -0.500000
      8 CBA          4.5890    -0.1740    -0.5710 ca         1 60G      -0.114600
      9 CAK          5.8650    -0.6570    -0.2880 ca         1 60G      -0.063000
     10 CAI          6.0520    -1.9650     0.1300 ca         1 60G      -0.111000
     11 CAH          4.9580    -2.8010     0.2890 ca         1 60G      -0.084000
     12 CAJ          3.6840    -2.3220     0.0250 ca         1 60G      -0.095000
     13 CAW          3.4820    -1.0210    -0.4220 ca         1 60G      -0.038300
     14 CAM          2.0690    -0.5660    -0.6370 c3         1 60G      -0.265100
     15 SBB          1.5270     0.2930     0.8440 s6         1 60G       1.214800
     16 OAF          1.4430    -0.6550     1.9350 o          1 60G      -0.517000
     17 OAG          2.3170     1.5000     1.0090 o          1 60G      -0.517000
     18 NAQ         -0.0010     0.8530     0.4610 ns         1 60G      -0.609300
     19 CAU         -1.0950     0.0120     0.3150 c          1 60G       0.697100
     20 OAD         -0.9760    -1.1880     0.2880 o          1 60G      -0.549100
     21 NAP         -2.2620     0.7180     0.2040 ns         1 60G      -0.318900
     22 N3          -4.4580     1.1830    -0.0700 nb         1 60G      -0.319500
     23 N1          -3.7320    -1.0660    -0.1260 nb         1 60G      -0.319500
     24 OAS         -5.2460    -2.7400    -0.4510 os         1 60G      -0.448800
     25 CAB         -4.1620    -3.6630    -0.3850 c3         1 60G       0.159900
     26 OAT         -6.6700     1.6790    -0.3440 os         1 60G      -0.448800
     27 CAC         -6.3380     3.0570    -0.1980 c3         1 60G       0.159900
     28 H1          -7.0650    -0.8820    -0.5770 ha         1 60G       0.163000
     29 H2           5.5430     3.4720    -2.0070 h1         1 60G       0.049700
     30 H3           4.3650     3.8860    -0.7420 h1         1 60G       0.049700
     31 H4           6.1020     3.8880    -0.3730 h1         1 60G       0.049700
     32 H5           6.7270    -0.0150    -0.4080 ha         1 60G       0.130000
     33 H6           7.0510    -2.3270     0.3320 ha         1 60G       0.121000
     34 H7           5.0930    -3.8210     0.6220 ha         1 60G       0.122000
     35 H8           2.8300    -2.9740     0.1580 ha         1 60G       0.129000
     36 H9           1.9480     0.1250    -1.4680 h1         1 60G       0.126200
     37 H10          1.3950    -1.4100    -0.7720 h1         1 60G       0.126200
     38 H11         -0.0820     1.8600     0.3850 hn         1 60G       0.347500
     39 H12         -2.2240     1.7250     0.2720 hn         1 60G       0.175000
     40 H13         -3.6420    -3.6060     0.5710 h1         1 60G       0.052700
     41 H14         -4.6090    -4.6470    -0.4970 h1         1 60G       0.052700
     42 H15         -3.4430    -3.4960    -1.1860 h1         1 60G       0.052700
     43 H16         -5.9190     3.2660     0.7870 h1         1 60G       0.052700
     44 H17         -5.6320     3.3840    -0.9610 h1         1 60G       0.052700
     45 H18         -7.2730     3.5980    -0.3150 h1         1 60G       0.052700
     46 CAV          4.4470     1.2200    -1.0800 c          1 60G       0.618700
@<TRIPOS>BOND
     1     1    21 1   
     2     1    22 ar  
     3     1    23 ar  
     4     2     3 ar  
     5     2    22 ar  
     6     2    26 1   
     7     3     4 ar  
     8     3    28 1   
     9     4    23 ar  
    10     4    24 1   
    11     5     6 1   
    12     5    29 1   
    13     5    30 1   
    14     5    31 1   
    15     6    46 1   
    16     7    46 2   
    17     8     9 ar  
    18     8    13 ar  
    19     8    46 1   
    20     9    10 ar  
    21     9    32 1   
    22    10    11 ar  
    23    10    33 1   
    24    11    12 ar  
    25    11    34 1   
    26    12    13 ar  
    27    12    35 1   
    28    13    14 1   
    29    14    15 1   
    30    14    36 1   
    31    14    37 1   
    32    15    16 2   
    33    15    17 2   
    34    15    18 1   
    35    18    19 1   
    36    18    38 1   
    37    19    20 2   
    38    19    21 1   
    39    21    39 1   
    40    24    25 1   
    41    25    40 1   
    42    25    41 1   
    43    25    42 1   
    44    26    27 1   
    45    27    43 1   
    46    27    44 1   
    47    27    45 1   
@<TRIPOS>SUBSTRUCTURE
     1 60G         1 TEMP              0 ****  ****    0 ROOT
