@<TRIPOS>MOLECULE
60G
   46    47     1     0     0
SMALL
No Charge or Current Charge


@<TRIPOS>ATOM
      1 C2          -3.5850     0.2600    -0.1400 ca         1 60G       0.335900
      2 C4          -5.8080     0.7700    -0.0940 ca         1 60G       0.402300
      3 C5          -6.0990    -0.5570    -0.4210 ca         1 60G      -0.307000
      4 C6          -5.0330    -1.4440    -0.6000 ca         1 60G       0.402300
      5 CAA          5.5780     3.2890    -1.4700 c3         1 60G       0.153900
      6 OAR          5.5590     1.9950    -0.8390 os         1 60G      -0.424100
      7 OAE          3.7790     1.3310    -2.1090 o          1 60G      -0.500000
      8 CBA          4.7010    -0.2300    -0.5090 ca         1 60G      -0.114600
      9 CAK          5.9970    -0.7200    -0.2240 ca         1 60G      -0.063000
     10 CAI          6.1790    -1.9560     0.4140 ca         1 60G      -0.111000
     11 CAH          5.0670    -2.7230     0.7830 ca         1 60G      -0.084000
     12 CAJ          3.7740    -2.2510     0.5160 ca         1 60G      -0.095000
     13 CAW          3.5720    -1.0110    -0.1250 ca         1 60G      -0.038300
     14 CAM          2.1240    -0.5600    -0.3410 c3         1 60G      -0.265100
     15 SBB          1.4840     0.5390     0.9340 s6         1 60G       1.214800
     16 OAF          1.3750    -0.2150     2.1880 o          1 60G      -0.517000
     17 OAG          2.2430     1.7920     0.8960 o          1 60G      -0.517000
     18 NAQ         -0.0540     0.8930     0.3990 ns         1 60G      -0.609300
     19 CAU         -1.1360     0.0830     0.4130 c          1 60G       0.697100
     20 OAD         -1.0930    -1.0890     0.7470 o          1 60G      -0.549100
     21 NAP         -2.2720     0.7340     0.0000 ns         1 60G      -0.318900
     22 N3          -4.5350     1.1890     0.0470 nb         1 60G      -0.319500
     23 N1          -3.7580    -1.0330    -0.4620 nb         1 60G      -0.319500
     24 OAS         -5.3290    -2.7480    -0.9230 os         1 60G      -0.448800
     25 CAB         -4.2830    -3.7230    -1.1120 c3         1 60G       0.159900
     26 OAT         -6.8640     1.6350     0.0770 os         1 60G      -0.448800
     27 CAC         -6.6460     3.0200     0.4160 c3         1 60G       0.159900
     28 H1          -7.1240    -0.8910    -0.5330 ha         1 60G       0.163000
     29 H2           5.7130     3.1940    -2.5550 h1         1 60G       0.049700
     30 H3           4.6410     3.8290    -1.2810 h1         1 60G       0.049700
     31 H4           6.4040     3.8930    -1.0760 h1         1 60G       0.049700
     32 H5           6.8760    -0.1450    -0.5090 ha         1 60G       0.130000
     33 H6           7.1840    -2.3190     0.6210 ha         1 60G       0.121000
     34 H7           5.2060    -3.6820     1.2800 ha         1 60G       0.122000
     35 H8           2.9200    -2.8540     0.8180 ha         1 60G       0.129000
     36 H9           1.9870    -0.0400    -1.2910 h1         1 60G       0.126200
     37 H10          1.4500    -1.4220    -0.3320 h1         1 60G       0.126200
     38 H11         -0.1420     1.8530     0.1140 hn         1 60G       0.347500
     39 H12         -2.1650     1.7180    -0.1970 hn         1 60G       0.175000
     40 H13         -3.6830    -3.8360    -0.1990 h1         1 60G       0.052700
     41 H14         -4.7120    -4.7020    -1.3590 h1         1 60G       0.052700
     42 H15         -3.6160    -3.4280    -1.9320 h1         1 60G       0.052700
     43 H16         -6.1130     3.1100     1.3720 h1         1 60G       0.052700
     44 H17         -6.0560     3.5250    -0.3600 h1         1 60G       0.052700
     45 H18         -7.6040     3.5470     0.5100 h1         1 60G       0.052700
     46 CAV          4.5780     1.1080    -1.2080 c          1 60G       0.618700
@<TRIPOS>BOND
     1     1    21 1   
     2     1    22 ar  
     3     1    23 ar  
     4     2     3 ar  
     5     2    22 ar  
     6     2    26 1   
     7     3     4 ar  
     8     3    28 1   
     9     4    23 ar  
    10     4    24 1   
    11     5     6 1   
    12     5    29 1   
    13     5    30 1   
    14     5    31 1   
    15     6    46 1   
    16     7    46 2   
    17     8     9 ar  
    18     8    13 ar  
    19     8    46 1   
    20     9    10 ar  
    21     9    32 1   
    22    10    11 ar  
    23    10    33 1   
    24    11    12 ar  
    25    11    34 1   
    26    12    13 ar  
    27    12    35 1   
    28    13    14 1   
    29    14    15 1   
    30    14    36 1   
    31    14    37 1   
    32    15    16 2   
    33    15    17 2   
    34    15    18 1   
    35    18    19 1   
    36    18    38 1   
    37    19    20 2   
    38    19    21 1   
    39    21    39 1   
    40    24    25 1   
    41    25    40 1   
    42    25    41 1   
    43    25    42 1   
    44    26    27 1   
    45    27    43 1   
    46    27    44 1   
    47    27    45 1   
@<TRIPOS>SUBSTRUCTURE
     1 60G         1 TEMP              0 ****  ****    0 ROOT
