@<TRIPOS>MOLECULE
60H
   37    39     1     0     0
SMALL
abcg2


@<TRIPOS>ATOM
      1 N10         -0.4970     2.0140    -0.7520 n7         1 60H      -0.868400
      2 C38         -0.4980     1.5460     0.6220 c5         1 60H       0.176500
      3 C39          0.0010     0.1020     0.8080 c3         1 60H       0.043900
      4 C46         -0.8860    -0.9940     0.2600 ca         1 60H      -0.074300
      5 C51         -1.0880    -2.1330     1.0400 ca         1 60H      -0.103250
      6 C50         -1.8650    -3.1910     0.5880 ca         1 60H      -0.114500
      7 C49         -2.4630    -3.1280    -0.6640 ca         1 60H      -0.110500
      8 C48         -2.2760    -1.9980    -1.4480 ca         1 60H      -0.114500
      9 C47         -1.4950    -0.9420    -0.9940 ca         1 60H      -0.103250
     10 C40          1.4380    -0.0170     0.3350 ca         1 60H      -0.074300
     11 C45          2.4730     0.2180     1.2390 ca         1 60H      -0.103250
     12 C44          3.8010     0.1650     0.8390 ca         1 60H      -0.114500
     13 C43          4.1200    -0.1230    -0.4810 ca         1 60H      -0.110500
     14 C42          3.0990    -0.3580    -1.3920 ca         1 60H      -0.114500
     15 C41          1.7710    -0.3070    -0.9870 ca         1 60H      -0.103250
     16 C37         -1.9400     1.7980     1.0490 c5         1 60H      -0.079400
     17 C36         -2.2980     3.1150     0.3450 c5         1 60H      -0.084400
     18 C35         -1.2330     3.2740    -0.7590 c5         1 60H       0.153800
     19 H1           0.4440     2.1370    -1.1050 hn         1 60H       0.419000
     20 H66          0.1580     2.1670     1.2580 h1         1 60H       0.020700
     21 H67          0.0250    -0.0390     1.8940 hc         1 60H       0.052700
     22 H77         -0.6310    -2.1930     2.0210 ha         1 60H       0.119500
     23 H76         -2.0050    -4.0610     1.2160 ha         1 60H       0.110750
     24 H75         -3.0730    -3.9480    -1.0210 ha         1 60H       0.110500
     25 H74         -2.7430    -1.9330    -2.4230 ha         1 60H       0.110750
     26 H73         -1.3720    -0.0610    -1.6090 ha         1 60H       0.119500
     27 H72          2.2360     0.4400     2.2730 ha         1 60H       0.119500
     28 H71          4.5870     0.3440     1.5620 ha         1 60H       0.110750
     29 H70          5.1540    -0.1700    -0.7960 ha         1 60H       0.110500
     30 H69          3.3350    -0.5860    -2.4230 ha         1 60H       0.110750
     31 H68          0.9910    -0.5020    -1.7120 ha         1 60H       0.119500
     32 H65         -2.5820     0.9880     0.6980 hc         1 60H       0.054200
     33 H64         -2.0410     1.8530     2.1330 hc         1 60H       0.054200
     34 H63         -3.3090     3.0920    -0.0610 hc         1 60H       0.044700
     35 H62         -2.2530     3.9550     1.0370 hc         1 60H       0.044700
     36 H60         -0.5900     4.1330    -0.5330 h1         1 60H       0.033700
     37 H61         -1.6730     3.4570    -1.7420 h1         1 60H       0.033700
@<TRIPOS>BOND
     1     1     2 1   
     2     1    18 1   
     3     1    19 1   
     4     2     3 1   
     5     2    16 1   
     6     2    20 1   
     7     3     4 1   
     8     3    10 1   
     9     3    21 1   
    10     4     5 ar  
    11     4     9 ar  
    12     5     6 ar  
    13     5    22 1   
    14     6     7 ar  
    15     6    23 1   
    16     7     8 ar  
    17     7    24 1   
    18     8     9 ar  
    19     8    25 1   
    20     9    26 1   
    21    10    11 ar  
    22    10    15 ar  
    23    11    12 ar  
    24    11    27 1   
    25    12    13 ar  
    26    12    28 1   
    27    13    14 ar  
    28    13    29 1   
    29    14    15 ar  
    30    14    30 1   
    31    15    31 1   
    32    16    17 1   
    33    16    32 1   
    34    16    33 1   
    35    17    18 1   
    36    17    34 1   
    37    17    35 1   
    38    18    36 1   
    39    18    37 1   
@<TRIPOS>SUBSTRUCTURE
     1 60H         1 TEMP              0 ****  ****    0 ROOT
