@<TRIPOS>MOLECULE
60H
   37    39     1     0     0
SMALL
No Charge or Current Charge


@<TRIPOS>ATOM
      1 N10         -0.4190     2.2010    -0.7910 n7         1 60H      -0.868400
      2 C38         -0.5070     1.6510     0.5940 c5         1 60H       0.176500
      3 C39          0.0140     0.1870     0.7950 c3         1 60H       0.043900
      4 C46         -0.8540    -0.9600     0.2390 ca         1 60H      -0.074300
      5 C51         -0.9620    -2.1530     0.9870 ca         1 60H      -0.103250
      6 C50         -1.7370    -3.2290     0.5200 ca         1 60H      -0.114500
      7 C49         -2.4120    -3.1290    -0.7070 ca         1 60H      -0.110500
      8 C48         -2.3070    -1.9530    -1.4660 ca         1 60H      -0.114500
      9 C47         -1.5320    -0.8770    -0.9990 ca         1 60H      -0.103250
     10 C40          1.4830     0.0100     0.3840 ca         1 60H      -0.074300
     11 C45          2.4950    -0.0150     1.3670 ca         1 60H      -0.103250
     12 C44          3.8420    -0.1820     1.0010 ca         1 60H      -0.114500
     13 C43          4.1920    -0.3250    -0.3520 ca         1 60H      -0.110500
     14 C42          3.1930    -0.3000    -1.3380 ca         1 60H      -0.114500
     15 C41          1.8460    -0.1340    -0.9720 ca         1 60H      -0.103250
     16 C37         -1.9760     1.8980     1.0310 c5         1 60H      -0.079400
     17 C36         -2.1930     3.3000     0.4220 c5         1 60H      -0.084400
     18 C35         -1.6160     3.0610    -0.9930 c5         1 60H       0.153800
     19 H1           0.4330     2.7700    -0.8530 hn         1 60H       0.419000
     20 H66          0.1330     2.2820     1.2280 h1         1 60H       0.020700
     21 H67         -0.0160     0.0590     1.8840 hc         1 60H       0.052700
     22 H77         -0.4410    -2.2500     1.9370 ha         1 60H       0.119500
     23 H76         -1.8120    -4.1400     1.1080 ha         1 60H       0.110750
     24 H75         -3.0120    -3.9610    -1.0690 ha         1 60H       0.110500
     25 H74         -2.8240    -1.8750    -2.4190 ha         1 60H       0.110750
     26 H73         -1.4600     0.0150    -1.6110 ha         1 60H       0.119500
     27 H72          2.2410     0.0940     2.4190 ha         1 60H       0.119500
     28 H71          4.6150    -0.2000     1.7670 ha         1 60H       0.110750
     29 H70          5.2350    -0.4530    -0.6350 ha         1 60H       0.110500
     30 H69          3.4610    -0.4090    -2.3870 ha         1 60H       0.110750
     31 H68          1.0830    -0.1120    -1.7470 ha         1 60H       0.119500
     32 H65         -2.6700     1.1620     0.6090 hc         1 60H       0.054200
     33 H64         -2.0980     1.8860     2.1190 hc         1 60H       0.054200
     34 H63         -3.2470     3.5980     0.4020 hc         1 60H       0.044700
     35 H62         -1.6350     4.0730     0.9640 hc         1 60H       0.044700
     36 H60         -1.3640     3.9980    -1.5080 h1         1 60H       0.033700
     37 H61         -2.3500     2.5280    -1.6130 h1         1 60H       0.033700
@<TRIPOS>BOND
     1     1     2 1   
     2     1    18 1   
     3     1    19 1   
     4     2     3 1   
     5     2    16 1   
     6     2    20 1   
     7     3     4 1   
     8     3    10 1   
     9     3    21 1   
    10     4     5 ar  
    11     4     9 ar  
    12     5     6 ar  
    13     5    22 1   
    14     6     7 ar  
    15     6    23 1   
    16     7     8 ar  
    17     7    24 1   
    18     8     9 ar  
    19     8    25 1   
    20     9    26 1   
    21    10    11 ar  
    22    10    15 ar  
    23    11    12 ar  
    24    11    27 1   
    25    12    13 ar  
    26    12    28 1   
    27    13    14 ar  
    28    13    29 1   
    29    14    15 ar  
    30    14    30 1   
    31    15    31 1   
    32    16    17 1   
    33    16    32 1   
    34    16    33 1   
    35    17    18 1   
    36    17    34 1   
    37    17    35 1   
    38    18    36 1   
    39    18    37 1   
@<TRIPOS>SUBSTRUCTURE
     1 60H         1 TEMP              0 ****  ****    0 ROOT
