@<TRIPOS>MOLECULE
60I
   65    68     1     0     0
SMALL
No Charge or Current Charge


@<TRIPOS>ATOM
      1 N          186.0100   132.0070    30.4900 na         1 60I       0.131800
      2 C          186.2450   129.6490    33.1550 c3         1 60I      -0.122400
      3 O          183.0270   128.9680    30.2770 o          1 60I      -0.599100
      4 C1         185.9980   130.4040    31.8730 cc         1 60I       0.291300
      5 C10        185.9940   127.2220    31.1980 c6         1 60I       0.095500
      6 C11        185.3740   123.8160    29.4730 c3         1 60I       0.147500
      7 C12        184.5940   122.5430    29.7890 cc         1 60I       0.414800
      8 C13        183.2310   120.8700    29.6270 ca         1 60I       0.065400
      9 C14        182.2940   119.9270    29.1790 ca         1 60I      -0.049000
     10 C15        181.8520   118.9360    30.0840 ca         1 60I      -0.137000
     11 C16        182.3440   118.9090    31.4100 ca         1 60I      -0.098000
     12 C17        183.2860   119.8670    31.8380 ca         1 60I      -0.114000
     13 C18        183.7120   120.8280    30.9060 ca         1 60I      -0.078200
     14 C2         185.0350   130.0810    30.8860 cc         1 60I      -0.279600
     15 C20        186.7220   121.5540    32.4770 c3         1 60I      -0.063000
     16 C21        187.6970   121.9980    31.3560 c3         1 60I      -0.087100
     17 C22        187.2850   122.0340    33.8400 c3         1 60I      -0.087100
     18 C23        186.6410   120.0040    32.4920 c3         1 60I      -0.087100
     19 C3         185.0150   131.1410    30.0190 cd         1 60I      -0.077300
     20 C4         186.4160   133.2920    29.8980 c3         1 60I       0.067900
     21 C5         184.1780   131.3790    28.7820 c3         1 60I      -0.038800
     22 C6         184.1270   128.9030    30.8120 c          1 60I       0.653700
     23 C7         183.6480   126.5470    31.5970 c6         1 60I       0.095500
     24 C8         183.7930   125.4290    30.5300 c6         1 60I       0.137300
     25 C9         186.1240   126.0890    30.1430 c6         1 60I       0.137300
     26 N1         186.6100   131.5480    31.6490 nd         1 60I      -0.526800
     27 N2         184.5820   127.6810    31.3510 n          1 60I      -0.403800
     28 N3         185.2030   124.9530    30.4280 n3         1 60I      -0.730600
     29 N4         183.7700   121.9310    28.9070 nd         1 60I      -0.582100
     30 N5         184.5990   121.8630    31.0210 na         1 60I      -0.159600
     31 H2         186.4630   130.3450    33.9740 hc         1 60I       0.050033
     32 H1         185.3710   129.0640    33.4610 hc         1 60I       0.050033
     33 H3         187.1070   128.9800    33.0610 hc         1 60I       0.050033
     34 H16        186.3570   126.8500    32.1660 h1         1 60I       0.064450
     35 H17        186.6490   128.0470    30.8890 h1         1 60I       0.064450
     36 H19        186.4340   123.5440    29.4070 h1         1 60I       0.059200
     37 H18        185.0840   124.1420    28.4650 h1         1 60I       0.059200
     38 H20        181.9140   119.9630    28.1620 ha         1 60I       0.127000
     39 H21        181.1250   118.1950    29.7600 ha         1 60I       0.112000
     40 H22        181.9940   118.1460    32.1020 ha         1 60I       0.110000
     41 H23        183.6610   119.8520    32.8580 ha         1 60I       0.116000
     42 H24        185.4090   123.2860    32.3420 h1         1 60I       0.069200
     43 H25        184.6670   121.9060    33.1220 h1         1 60I       0.069200
     44 H28        187.7650   123.0910    31.3070 hc         1 60I       0.037700
     45 H26        188.7050   121.6070    31.5380 hc         1 60I       0.037700
     46 H27        187.3710   121.6250    30.3770 hc         1 60I       0.037700
     47 H29        186.6280   121.7310    34.6650 hc         1 60I       0.037700
     48 H30        188.2790   121.6100    34.0280 hc         1 60I       0.037700
     49 H31        187.3740   123.1270    33.8640 hc         1 60I       0.037700
     50 H33        185.9830   119.6520    33.2940 hc         1 60I       0.037700
     51 H34        186.2610   119.6150    31.5390 hc         1 60I       0.037700
     52 H32        187.6320   119.5640    32.6570 hc         1 60I       0.037700
     53 H6         187.1530   133.7870    30.5410 h1         1 60I       0.058033
     54 H4         186.8580   133.1160    28.9110 h1         1 60I       0.058033
     55 H5         185.5370   133.9400    29.7940 h1         1 60I       0.058033
     56 H7         184.6060   132.1520    28.1340 hc         1 60I       0.058367
     57 H8         184.0940   130.4650    28.1820 hc         1 60I       0.058367
     58 H9         183.1640   131.6950    29.0530 hc         1 60I       0.058367
     59 H11        182.6070   126.8980    31.6210 h1         1 60I       0.064450
     60 H10        183.8650   126.1220    32.5870 h1         1 60I       0.064450
     61 H13        183.4510   125.8190    29.5600 h1         1 60I       0.046700
     62 H12        183.1220   124.6010    30.8020 h1         1 60I       0.046700
     63 H14        187.1670   125.7410    30.1290 h1         1 60I       0.046700
     64 H15        185.9100   126.5080    29.1490 h1         1 60I       0.046700
     65 C19        185.3080   122.1960    32.2800 c3         1 60I       0.079600
@<TRIPOS>BOND
     1     1    19 1   
     2     1    20 1   
     3     1    26 1   
     4     2     4 1   
     5     2    31 1   
     6     2    32 1   
     7     2    33 1   
     8     3    22 2   
     9     4    14 1   
    10     4    26 2   
    11     5    25 1   
    12     5    27 1   
    13     5    34 1   
    14     5    35 1   
    15     6     7 1   
    16     6    28 1   
    17     6    36 1   
    18     6    37 1   
    19     7    29 2   
    20     7    30 1   
    21     8     9 ar  
    22     8    13 ar  
    23     8    29 1   
    24     9    10 ar  
    25     9    38 1   
    26    10    11 ar  
    27    10    39 1   
    28    11    12 ar  
    29    11    40 1   
    30    12    13 ar  
    31    12    41 1   
    32    13    30 1   
    33    14    19 2   
    34    14    22 1   
    35    15    16 1   
    36    15    17 1   
    37    15    18 1   
    38    15    65 1   
    39    16    44 1   
    40    16    45 1   
    41    16    46 1   
    42    17    47 1   
    43    17    48 1   
    44    17    49 1   
    45    18    50 1   
    46    18    51 1   
    47    18    52 1   
    48    19    21 1   
    49    20    53 1   
    50    20    54 1   
    51    20    55 1   
    52    21    56 1   
    53    21    57 1   
    54    21    58 1   
    55    22    27 1   
    56    23    24 1   
    57    23    27 1   
    58    23    59 1   
    59    23    60 1   
    60    24    28 1   
    61    24    61 1   
    62    24    62 1   
    63    25    28 1   
    64    25    63 1   
    65    25    64 1   
    66    30    65 1   
    67    42    65 1   
    68    43    65 1   
@<TRIPOS>SUBSTRUCTURE
     1 60I         1 TEMP              0 ****  ****    0 ROOT
