@<TRIPOS>MOLECULE
60I
   65    68     1     0     0
SMALL
abcg2


@<TRIPOS>ATOM
      1 N          186.0250   131.7200    30.5200 na         1 60I       0.131800
      2 C          185.5460   129.8690    33.5080 c3         1 60I      -0.122400
      3 O          182.7730   129.0280    30.4260 o          1 60I      -0.599100
      4 C1         185.5570   130.4140    32.1220 cc         1 60I       0.291300
      5 C10        185.6460   127.1860    31.4950 c6         1 60I       0.095500
      6 C11        185.3310   123.9680    29.6040 c3         1 60I       0.147500
      7 C12        184.5890   122.7070    29.9040 cc         1 60I       0.414800
      8 C13        183.1940   121.1030    29.7590 ca         1 60I       0.065400
      9 C14        182.2030   120.2010    29.3720 ca         1 60I      -0.049000
     10 C15        181.8370   119.2160    30.2690 ca         1 60I      -0.137000
     11 C16        182.4380   119.1250    31.5340 ca         1 60I      -0.098000
     12 C17        183.4290   120.0060    31.9310 ca         1 60I      -0.114000
     13 C18        183.8040   120.9870    31.0180 ca         1 60I      -0.078200
     14 C2         184.8700   129.9340    30.9820 cc         1 60I      -0.279600
     15 C20        186.9510   121.5780    32.2090 c3         1 60I      -0.063000
     16 C21        187.7900   121.9270    30.9820 c3         1 60I      -0.087100
     17 C22        187.6800   122.0550    33.4670 c3         1 60I      -0.087100
     18 C23        186.7720   120.0630    32.2770 c3         1 60I      -0.087100
     19 C3         185.1900   130.8220    29.9710 cd         1 60I      -0.077300
     20 C4         186.6200   132.8600    29.8650 c3         1 60I       0.067900
     21 C5         184.7920   130.8690    28.5410 c3         1 60I      -0.038800
     22 C6         183.8900   128.8320    30.8910 c          1 60I       0.653700
     23 C7         183.3280   126.5300    31.4680 c6         1 60I       0.095500
     24 C8         183.6330   125.4790    30.4150 c6         1 60I       0.137300
     25 C9         185.9330   126.1330    30.4360 c6         1 60I       0.137300
     26 N1         186.2420   131.4990    31.8200 nd         1 60I      -0.526800
     27 N2         184.2690   127.6310    31.3940 n          1 60I      -0.403800
     28 N3         185.0060   125.0230    30.5450 n3         1 60I      -0.730600
     29 N4         183.7060   122.1890    29.0940 nd         1 60I      -0.582100
     30 N5         184.7140   122.0150    31.0780 na         1 60I      -0.159600
     31 H2         185.9190   130.6090    34.2140 hc         1 60I       0.050033
     32 H1         184.5400   129.5830    33.8150 hc         1 60I       0.050033
     33 H3         186.1740   128.9810    33.6000 hc         1 60I       0.050033
     34 H16        185.8190   126.7670    32.4900 h1         1 60I       0.064450
     35 H17        186.3280   128.0210    31.3590 h1         1 60I       0.064450
     36 H19        186.4070   123.7920    29.6460 h1         1 60I       0.059200
     37 H18        185.0980   124.2430    28.5650 h1         1 60I       0.059200
     38 H20        181.7310   120.2810    28.4010 ha         1 60I       0.127000
     39 H21        181.0680   118.5040    29.9990 ha         1 60I       0.112000
     40 H22        182.1180   118.3490    32.2170 ha         1 60I       0.110000
     41 H23        183.8830   119.9250    32.9090 ha         1 60I       0.116000
     42 H24        185.7630   123.3890    32.1960 h1         1 60I       0.069200
     43 H25        185.0510   122.0760    33.1110 h1         1 60I       0.069200
     44 H28        187.9860   122.9990    30.9220 hc         1 60I       0.037700
     45 H26        188.7560   121.4210    31.0330 hc         1 60I       0.037700
     46 H27        187.3090   121.6110    30.0540 hc         1 60I       0.037700
     47 H29        187.1180   121.8120    34.3710 hc         1 60I       0.037700
     48 H30        188.6590   121.5790    33.5450 hc         1 60I       0.037700
     49 H31        187.8380   123.1360    33.4490 hc         1 60I       0.037700
     50 H33        186.2080   119.7640    33.1630 hc         1 60I       0.037700
     51 H34        186.2580   119.6700    31.3990 hc         1 60I       0.037700
     52 H32        187.7460   119.5720    32.3300 hc         1 60I       0.037700
     53 H6         187.3730   133.2780    30.5260 h1         1 60I       0.058033
     54 H4         187.0970   132.5610    28.9340 h1         1 60I       0.058033
     55 H5         185.8730   133.6240    29.6480 h1         1 60I       0.058033
     56 H7         185.6620   130.8300    27.8830 hc         1 60I       0.058367
     57 H8         184.1450   130.0310    28.2950 hc         1 60I       0.058367
     58 H9         184.2490   131.7870    28.3080 hc         1 60I       0.058367
     59 H11        182.3140   126.9000    31.3500 h1         1 60I       0.064450
     60 H10        183.4100   126.0790    32.4620 h1         1 60I       0.064450
     61 H13        183.4370   125.8930    29.4110 h1         1 60I       0.046700
     62 H12        182.9510   124.6380    30.5550 h1         1 60I       0.046700
     63 H14        186.9510   125.7620    30.5770 h1         1 60I       0.046700
     64 H15        185.8920   126.6070    29.4400 h1         1 60I       0.046700
     65 C19        185.5960   122.3120    32.1940 c3         1 60I       0.079600
@<TRIPOS>BOND
     1     1    19 1   
     2     1    20 1   
     3     1    26 1   
     4     2     4 1   
     5     2    31 1   
     6     2    32 1   
     7     2    33 1   
     8     3    22 2   
     9     4    14 1   
    10     4    26 2   
    11     5    25 1   
    12     5    27 1   
    13     5    34 1   
    14     5    35 1   
    15     6     7 1   
    16     6    28 1   
    17     6    36 1   
    18     6    37 1   
    19     7    29 2   
    20     7    30 1   
    21     8     9 ar  
    22     8    13 ar  
    23     8    29 1   
    24     9    10 ar  
    25     9    38 1   
    26    10    11 ar  
    27    10    39 1   
    28    11    12 ar  
    29    11    40 1   
    30    12    13 ar  
    31    12    41 1   
    32    13    30 1   
    33    14    19 2   
    34    14    22 1   
    35    15    16 1   
    36    15    17 1   
    37    15    18 1   
    38    15    65 1   
    39    16    44 1   
    40    16    45 1   
    41    16    46 1   
    42    17    47 1   
    43    17    48 1   
    44    17    49 1   
    45    18    50 1   
    46    18    51 1   
    47    18    52 1   
    48    19    21 1   
    49    20    53 1   
    50    20    54 1   
    51    20    55 1   
    52    21    56 1   
    53    21    57 1   
    54    21    58 1   
    55    22    27 1   
    56    23    24 1   
    57    23    27 1   
    58    23    59 1   
    59    23    60 1   
    60    24    28 1   
    61    24    61 1   
    62    24    62 1   
    63    25    28 1   
    64    25    63 1   
    65    25    64 1   
    66    30    65 1   
    67    42    65 1   
    68    43    65 1   
@<TRIPOS>SUBSTRUCTURE
     1 60I         1 TEMP              0 ****  ****    0 ROOT
