@<TRIPOS>MOLECULE
60J
   25    26     1     0     0
SMALL
abcg2


@<TRIPOS>ATOM
      1 N01        -17.9920   -15.9370    25.3600 nv         1 60J      -1.038900
      2 C02        -16.9210   -16.3600    26.0900 cc         1 60J       0.656300
      3 N03        -15.9330   -17.0430    25.6190 nd         1 60J      -0.663000
      4 C04        -14.9610   -17.2650    26.5710 cd         1 60J       0.281500
      5 C05        -13.7170   -18.0500    26.1860 c          1 60J       0.626500
      6 O06        -13.7100   -18.5450    25.0460 o          1 60J      -0.702000
      7 O07        -12.8170   -18.1230    27.0470 o          1 60J      -0.702000
      8 C08        -15.2220   -16.7540    27.8080 cc         1 60J      -0.198300
      9 C09        -14.4360   -16.7580    29.0780 c3         1 60J       0.027900
     10 C10        -13.3920   -15.6320    29.1170 c3         1 60J      -0.013100
     11 C11        -12.5610   -15.6680    30.3580 cc         1 60J      -0.153300
     12 C12        -11.3160   -16.1990    30.5230 cd         1 60J      -0.142000
     13 C13        -10.8390   -16.1170    31.8610 cd         1 60J      -0.129000
     14 C14        -11.7340   -15.5280    32.6990 cc         1 60J      -0.265000
     15 S15        -13.1590   -15.0690    31.8610 ss         1 60J       0.133000
     16 S16        -16.7550   -15.9290    27.7670 ss         1 60J      -0.265400
     17 H1         -18.1300   -16.4390    24.4960 hn         1 60J       0.449500
     18 H2         -18.8520   -15.7730    25.8570 hn         1 60J       0.449500
     19 H4         -15.1080   -16.6560    29.9340 hc         1 60J       0.054700
     20 H5         -13.9270   -17.7140    29.1820 hc         1 60J       0.054700
     21 H6         -12.7320   -15.7440    28.2570 hc         1 60J       0.066200
     22 H7         -13.8930   -14.6660    29.0170 hc         1 60J       0.066200
     23 H8         -10.7560   -16.6360    29.7060 ha         1 60J       0.152000
     24 H9          -9.8720   -16.4780    32.1820 ha         1 60J       0.120000
     25 H10        -11.6320   -15.3350    33.7560 h4         1 60J       0.133000
@<TRIPOS>BOND
     1     1     2 1   
     2     1    17 1   
     3     1    18 1   
     4     2     3 2   
     5     2    16 1   
     6     3     4 1   
     7     4     5 1   
     8     4     8 2   
     9     5     6 1   
    10     5     7 1   
    11     8     9 1   
    12     8    16 1   
    13     9    10 1   
    14     9    19 1   
    15     9    20 1   
    16    10    11 1   
    17    10    21 1   
    18    10    22 1   
    19    11    12 2   
    20    11    15 1   
    21    12    13 1   
    22    12    23 1   
    23    13    14 2   
    24    13    24 1   
    25    14    15 1   
    26    14    25 1   
@<TRIPOS>SUBSTRUCTURE
     1 60J         1 TEMP              0 ****  ****    0 ROOT
