@<TRIPOS>MOLECULE
60J
   25    26     1     0     0
SMALL
No Charge or Current Charge


@<TRIPOS>ATOM
      1 N01        -18.0360   -15.9640    25.4380 nv         1 60J      -1.038900
      2 C02        -16.9560   -16.3090    26.1410 cc         1 60J       0.656300
      3 N03        -16.0230   -17.0000    25.5590 nd         1 60J      -0.663000
      4 C04        -14.9810   -17.2710    26.4700 cd         1 60J       0.281500
      5 C05        -13.7080   -18.0580    26.1110 c          1 60J       0.626500
      6 O06        -13.5870   -18.4860    24.9660 o          1 60J      -0.702000
      7 O07        -12.8300   -18.2530    26.9440 o          1 60J      -0.702000
      8 C08        -15.2320   -16.7410    27.7450 cc         1 60J      -0.198300
      9 C09        -14.4100   -16.7940    29.0140 c3         1 60J       0.027900
     10 C10        -13.3450   -15.6800    29.0880 c3         1 60J      -0.013100
     11 C11        -12.5600   -15.7060    30.3730 cc         1 60J      -0.153300
     12 C12        -11.3080   -16.2280    30.5840 cd         1 60J      -0.142000
     13 C13        -10.8510   -16.0850    31.9210 cd         1 60J      -0.129000
     14 C14        -11.7480   -15.4510    32.7410 cc         1 60J      -0.265000
     15 S15        -13.2050   -15.0090    31.8580 ss         1 60J       0.133000
     16 S16        -16.7590   -15.8970    27.8010 ss         1 60J      -0.265400
     17 H1         -18.1740   -16.4710    24.5720 hn         1 60J       0.449500
     18 H2         -18.8650   -15.7090    25.9610 hn         1 60J       0.449500
     19 H4         -15.0770   -16.6880    29.8790 hc         1 60J       0.054700
     20 H5         -13.9360   -17.7740    29.1400 hc         1 60J       0.054700
     21 H6         -12.6630   -15.7740    28.2340 hc         1 60J       0.066200
     22 H7         -13.8400   -14.7070    28.9800 hc         1 60J       0.066200
     23 H8         -10.7240   -16.7070    29.8030 ha         1 60J       0.152000
     24 H9          -9.8830   -16.4440    32.2610 ha         1 60J       0.120000
     25 H10        -11.6630   -15.2110    33.7940 h4         1 60J       0.133000
@<TRIPOS>BOND
     1     1     2 1   
     2     1    17 1   
     3     1    18 1   
     4     2     3 2   
     5     2    16 1   
     6     3     4 1   
     7     4     5 1   
     8     4     8 2   
     9     5     6 1   
    10     5     7 1   
    11     8     9 1   
    12     8    16 1   
    13     9    10 1   
    14     9    19 1   
    15     9    20 1   
    16    10    11 1   
    17    10    21 1   
    18    10    22 1   
    19    11    12 2   
    20    11    15 1   
    21    12    13 1   
    22    12    23 1   
    23    13    14 2   
    24    13    24 1   
    25    14    15 1   
    26    14    25 1   
@<TRIPOS>SUBSTRUCTURE
     1 60J         1 TEMP              0 ****  ****    0 ROOT
