@<TRIPOS>MOLECULE
60K
   36    38     1     0     0
SMALL
No Charge or Current Charge


@<TRIPOS>ATOM
      1 S           -6.0180     0.8360    -0.0810 sy         1 60K       1.151600
      2 C1          -4.3490     0.1900    -0.0670 ca         1 60K      -0.380500
      3 N1          -6.3430     0.8730     1.5160 n8         1 60K      -1.001100
      4 O1          -6.0070     2.2430    -0.4710 o          1 60K      -0.543000
      5 C2          -4.1360    -1.2020    -0.0660 ca         1 60K       0.017000
      6 N2          -0.4260    -1.3810    -0.0390 nu         1 60K      -0.639300
      7 O2          -6.9470    -0.1440    -0.6430 o          1 60K      -0.543000
      8 C3          -2.8250    -1.7080    -0.0570 ca         1 60K      -0.187000
      9 N3           0.7380    -0.6500    -0.0290 n2         1 60K      -0.354400
     10 O3           1.4450    -3.6700    -0.0280 o          1 60K      -0.591000
     11 C4          -1.7230    -0.8390    -0.0480 ca         1 60K       0.396000
     12 N4           3.5790    -2.7540    -0.0100 ns         1 60K      -0.388100
     13 O4           4.3940     3.5050     0.0070 o          1 60K      -0.713500
     14 C5           1.9200    -1.2200    -0.0200 cc         1 60K       0.339900
     15 O5           6.4720     2.9610     0.0220 o          1 60K      -0.713500
     16 C6           2.2040    -2.7030    -0.0200 c          1 60K       0.453700
     17 C7           4.2050    -1.5070    -0.0030 ca         1 60K       0.022600
     18 C8           5.5600    -1.1810     0.0080 ca         1 60K      -0.167000
     19 C9           5.9040     0.1890     0.0130 ca         1 60K      -0.047000
     20 C10          4.9000     1.2010     0.0070 ca         1 60K      -0.156600
     21 C11          5.2850     2.6680     0.0120 c          1 60K       0.714600
     22 C12          3.5300     0.8240    -0.0050 ca         1 60K      -0.003000
     23 C13          3.2150    -0.5430    -0.0090 ca         1 60K      -0.206900
     24 C14         -1.9420     0.5510    -0.0490 ca         1 60K      -0.187000
     25 C15         -3.2470     1.0690    -0.0590 ca         1 60K       0.017000
     26 HN4          4.0900    -3.6290    -0.0070 hn         1 60K       0.329500
     27 HN1         -6.5830     1.8540     1.6360 hn         1 60K       0.471500
     28 HN1A        -5.4100     0.7990     1.9140 hn         1 60K       0.471500
     29 H2          -4.9770    -1.8950    -0.0720 ha         1 60K       0.130000
     30 H3          -2.6710    -2.7830    -0.0560 ha         1 60K       0.137500
     31 HN2         -0.4060    -2.4110    -0.0400 hn         1 60K       0.520000
     32 H8           6.3260    -1.9530     0.0130 ha         1 60K       0.101000
     33 H9           6.9570     0.4630     0.0220 ha         1 60K       0.137000
     34 H12          2.7360     1.5690    -0.0100 ha         1 60K       0.147000
     35 H14         -1.1000     1.2360    -0.0430 ha         1 60K       0.137500
     36 H15         -3.3930     2.1490    -0.0620 ha         1 60K       0.130000
@<TRIPOS>BOND
     1     1     2 1   
     2     1     3 1   
     3     1     4 2   
     4     1     7 2   
     5     2     5 ar  
     6     2    25 ar  
     7     3    27 1   
     8     3    28 1   
     9     5     8 ar  
    10     5    29 1   
    11     6     9 1   
    12     6    11 1   
    13     6    31 1   
    14     8    11 ar  
    15     8    30 1   
    16     9    14 2   
    17    10    16 2   
    18    11    24 ar  
    19    12    16 1   
    20    12    17 1   
    21    12    26 1   
    22    13    21 1   
    23    14    16 1   
    24    14    23 1   
    25    15    21 1   
    26    17    18 ar  
    27    17    23 ar  
    28    18    19 ar  
    29    18    32 1   
    30    19    20 ar  
    31    19    33 1   
    32    20    21 1   
    33    20    22 ar  
    34    22    23 ar  
    35    22    34 1   
    36    24    25 ar  
    37    24    35 1   
    38    25    36 1   
@<TRIPOS>SUBSTRUCTURE
     1 60K         1 TEMP              0 ****  ****    0 ROOT
