@<TRIPOS>MOLECULE
60K
   36    38     1     0     0
SMALL
bcc


@<TRIPOS>ATOM
      1 S           -5.8390     0.8940    -0.0670 sy         1 60K       1.293200
      2 C1          -4.2140     0.2080    -0.1040 ca         1 60K      -0.380500
      3 N1          -6.2540     1.1290     1.5090 n8         1 60K      -0.890700
      4 O1          -5.7840     2.2170    -0.6680 o          1 60K      -0.613800
      5 C2          -4.0430    -1.1720    -0.0960 ca         1 60K      -0.001000
      6 N2          -0.4040    -1.4390    -0.0660 nu         1 60K      -0.445700
      7 O2          -6.7620    -0.1040    -0.5830 o          1 60K      -0.613800
      8 C3          -2.7690    -1.7020    -0.0860 ca         1 60K      -0.205000
      9 N3           0.6750    -0.6990    -0.0560 n2         1 60K      -0.354400
     10 O3           1.4020    -3.6280    -0.0020 o          1 60K      -0.666500
     11 C4          -1.6540    -0.8600    -0.0810 ca         1 60K       0.257600
     12 N4           3.5370    -2.7490     0.0250 ns         1 60K      -0.455100
     13 O4           4.2090     3.5080    -0.0490 o          1 60K      -0.818800
     14 C5           1.8430    -1.2340    -0.0290 cc         1 60K       0.339900
     15 O5           6.3650     2.9500    -0.0040 o          1 60K      -0.818800
     16 C6           2.1800    -2.6880    -0.0020 c          1 60K       0.596200
     17 C7           4.1120    -1.4810     0.0210 ca         1 60K       0.022600
     18 C8           5.4460    -1.1300     0.0450 ca         1 60K      -0.185000
     19 C9           5.7520     0.2280     0.0310 ca         1 60K      -0.065000
     20 C10          4.7650     1.2150    -0.0050 ca         1 60K      -0.156600
     21 C11          5.1470     2.6880    -0.0210 c          1 60K       0.925200
     22 C12          3.4240     0.8320    -0.0270 ca         1 60K      -0.021000
     23 C13          3.1020    -0.5130    -0.0140 ca         1 60K      -0.206900
     24 C14         -1.8320     0.5260    -0.0940 ca         1 60K      -0.205000
     25 C15         -3.1090     1.0530    -0.1060 ca         1 60K      -0.001000
     26 HN4          4.0560    -3.6130     0.0710 hn         1 60K       0.329500
     27 HN1         -5.6800     1.8190     1.9800 hn         1 60K       0.416300
     28 HN1A        -6.3080     0.2710     2.0480 hn         1 60K       0.416300
     29 H2          -4.8930    -1.8410    -0.1030 ha         1 60K       0.148000
     30 H3          -2.6380    -2.7770    -0.0840 ha         1 60K       0.155500
     31 HN2         -0.3300    -2.4520    -0.0540 hn         1 60K       0.464800
     32 H8           6.2270    -1.8790     0.0730 ha         1 60K       0.119000
     33 H9           6.7900     0.5300     0.0490 ha         1 60K       0.155000
     34 H12          2.6460     1.5830    -0.0550 ha         1 60K       0.165000
     35 H14         -0.9800     1.1890    -0.0980 ha         1 60K       0.155500
     36 H15         -3.2320     2.1270    -0.1210 ha         1 60K       0.148000
@<TRIPOS>BOND
     1     1     2 1   
     2     1     3 1   
     3     1     4 2   
     4     1     7 2   
     5     2     5 ar  
     6     2    25 ar  
     7     3    27 1   
     8     3    28 1   
     9     5     8 ar  
    10     5    29 1   
    11     6     9 1   
    12     6    11 1   
    13     6    31 1   
    14     8    11 ar  
    15     8    30 1   
    16     9    14 2   
    17    10    16 2   
    18    11    24 ar  
    19    12    16 1   
    20    12    17 1   
    21    12    26 1   
    22    13    21 1   
    23    14    16 1   
    24    14    23 1   
    25    15    21 1   
    26    17    18 ar  
    27    17    23 ar  
    28    18    19 ar  
    29    18    32 1   
    30    19    20 ar  
    31    19    33 1   
    32    20    21 1   
    33    20    22 ar  
    34    22    23 ar  
    35    22    34 1   
    36    24    25 ar  
    37    24    35 1   
    38    25    36 1   
@<TRIPOS>SUBSTRUCTURE
     1 60K         1 TEMP              0 ****  ****    0 ROOT
