@<TRIPOS>MOLECULE
60L
   27    28     1     0     0
SMALL
abcg2


@<TRIPOS>ATOM
      1 S8          -2.0170    -1.3520     0.4860 ss         1 60L       0.210000
      2 C14          4.4370    -2.1390    -0.3890 c3         1 60L       0.144100
      3 N13          3.2950    -1.2580    -0.5200 n7         1 60L      -0.859400
      4 C2           2.0480     0.6450     0.3820 ca         1 60L      -0.087300
      5 C3           2.1490     2.0300     0.4620 ca         1 60L      -0.106000
      6 C4           1.0100     2.8220     0.3770 ca         1 60L      -0.113000
      7 C5          -0.2360     2.2440     0.2120 ca         1 60L      -0.094000
      8 C6          -0.3590     0.8540     0.1180 ca         1 60L      -0.012000
      9 C1           0.7930     0.0720     0.2000 ca         1 60L      -0.082000
     10 C7          -1.6780     0.2500    -0.0680 cc         1 60L      -0.155000
     11 C11         -2.7890     0.7960    -0.6500 cd         1 60L      -0.129000
     12 C10         -3.9070    -0.0790    -0.6530 cd         1 60L      -0.132000
     13 C9          -3.6340    -1.2790    -0.0710 cc         1 60L      -0.246000
     14 H1           5.4060    -1.6220    -0.3770 h1         1 60L       0.029700
     15 H2           4.3610    -2.7090     0.5400 h1         1 60L       0.029700
     16 H3           4.4470    -2.8510    -1.2130 h1         1 60L       0.029700
     17 H4           3.3180    -0.8180    -1.4310 hn         1 60L       0.411000
     18 H6           3.2670    -0.7190     1.4740 h1         1 60L       0.036700
     19 H7           4.1700     0.4110     0.4860 h1         1 60L       0.036700
     20 H8           3.1200     2.4920     0.5920 ha         1 60L       0.110000
     21 H9           1.0970     3.8990     0.4440 ha         1 60L       0.113000
     22 H10         -1.1160     2.8720     0.1710 ha         1 60L       0.115000
     23 H11          0.7270    -1.0060     0.1030 ha         1 60L       0.132000
     24 H12         -2.8060     1.7860    -1.0830 ha         1 60L       0.133000
     25 H13         -4.8680     0.1740    -1.0770 ha         1 60L       0.133000
     26 H14         -4.2960    -2.1210     0.0600 h4         1 60L       0.149000
     27 C12          3.2720    -0.2260     0.4960 c3         1 60L       0.202100
@<TRIPOS>BOND
     1     1    10 1   
     2     1    13 1   
     3     2     3 1   
     4     2    14 1   
     5     2    15 1   
     6     2    16 1   
     7     3    17 1   
     8     3    27 1   
     9     4     5 ar  
    10     4     9 ar  
    11     4    27 1   
    12     5     6 ar  
    13     5    20 1   
    14     6     7 ar  
    15     6    21 1   
    16     7     8 ar  
    17     7    22 1   
    18     8     9 ar  
    19     8    10 1   
    20     9    23 1   
    21    10    11 2   
    22    11    12 1   
    23    11    24 1   
    24    12    13 2   
    25    12    25 1   
    26    13    26 1   
    27    18    27 1   
    28    19    27 1   
@<TRIPOS>SUBSTRUCTURE
     1 60L         1 TEMP              0 ****  ****    0 ROOT
