@<TRIPOS>MOLECULE
60L
   27    28     1     0     0
SMALL
No Charge or Current Charge


@<TRIPOS>ATOM
      1 S8          -2.3170    -1.3030     0.8340 ss         1 60L       0.210000
      2 C14          4.7620    -1.9350    -0.5420 c3         1 60L       0.144100
      3 N13          3.5850    -1.0500    -0.6270 n7         1 60L      -0.859400
      4 C2           1.9690     0.4760     0.4360 ca         1 60L      -0.087300
      5 C3           2.1530     1.8680     0.3270 ca         1 60L      -0.106000
      6 C4           1.0470     2.7120     0.1380 ca         1 60L      -0.113000
      7 C5          -0.2470     2.1710     0.0530 ca         1 60L      -0.094000
      8 C6          -0.4500     0.7780     0.1530 ca         1 60L      -0.012000
      9 C1           0.6680    -0.0590     0.3500 ca         1 60L      -0.082000
     10 C7          -1.7940     0.1970     0.0720 cc         1 60L      -0.155000
     11 C11         -2.7960     0.7710    -0.6710 cd         1 60L      -0.129000
     12 C10         -4.0070     0.0280    -0.6240 cd         1 60L      -0.132000
     13 C9          -3.9280    -1.1090     0.1430 cc         1 60L      -0.246000
     14 H1           5.6400    -1.3870    -0.1740 h1         1 60L       0.029700
     15 H2           4.5710    -2.7750     0.1400 h1         1 60L       0.029700
     16 H3           5.0070    -2.3480    -1.5290 h1         1 60L       0.029700
     17 H4           3.8040    -0.2840    -1.2760 hn         1 60L       0.411000
     18 H6           2.8880    -1.2260     1.3720 h1         1 60L       0.036700
     19 H7           3.9880     0.1320     1.0920 h1         1 60L       0.036700
     20 H8           3.1510     2.2950     0.3920 ha         1 60L       0.110000
     21 H9           1.1920     3.7870     0.0600 ha         1 60L       0.113000
     22 H10         -1.0910     2.8440    -0.0780 ha         1 60L       0.115000
     23 H11          0.5350    -1.1350     0.4250 ha         1 60L       0.132000
     24 H12         -2.6860     1.6860    -1.2450 ha         1 60L       0.133000
     25 H13         -4.9090     0.3290    -1.1490 ha         1 60L       0.133000
     26 H14         -4.6890    -1.8510     0.3490 h4         1 60L       0.149000
     27 C12          3.1630    -0.4450     0.6490 c3         1 60L       0.202100
@<TRIPOS>BOND
     1     1    10 1   
     2     1    13 1   
     3     2     3 1   
     4     2    14 1   
     5     2    15 1   
     6     2    16 1   
     7     3    17 1   
     8     3    27 1   
     9     4     5 ar  
    10     4     9 ar  
    11     4    27 1   
    12     5     6 ar  
    13     5    20 1   
    14     6     7 ar  
    15     6    21 1   
    16     7     8 ar  
    17     7    22 1   
    18     8     9 ar  
    19     8    10 1   
    20     9    23 1   
    21    10    11 2   
    22    11    12 1   
    23    11    24 1   
    24    12    13 2   
    25    12    25 1   
    26    13    26 1   
    27    18    27 1   
    28    19    27 1   
@<TRIPOS>SUBSTRUCTURE
     1 60L         1 TEMP              0 ****  ****    0 ROOT
