@<TRIPOS>MOLECULE
60N
   20    20     1     0     0
SMALL
No Charge or Current Charge


@<TRIPOS>ATOM
      1 C10          2.6330     1.1740    -0.4190 ca         1 60N      -0.214000
      2 C11          2.2640     0.1370     0.4780 ca         1 60N       0.296500
      3 C12          3.3620    -0.7980     1.0800 c          1 60N       0.615500
      4 O01         -1.9640     1.6670     1.5430 oh         1 60N      -0.768000
      5 C02         -1.4290     0.5290     0.7660 c3         1 60N      -0.231000
      6 P03         -2.4320    -0.0130    -0.7310 p5         1 60N       1.282500
      7 O04         -1.5680    -0.7340    -1.7090 o          1 60N      -0.904167
      8 O05         -3.5310    -0.9090    -0.2640 o          1 60N      -0.904167
      9 O06         -3.0140     1.2150    -1.3480 o          1 60N      -0.904167
     10 C07          0.0040     0.7630     0.2870 ca         1 60N       0.438300
     11 C08          0.3260     1.8200    -0.5890 ca         1 60N      -0.185000
     12 C09          1.6600     2.0280    -0.9560 ca         1 60N      -0.131000
     13 O13          3.0410    -1.6910     1.8610 o          1 60N      -0.749000
     14 O14          4.5360    -0.6270     0.7640 o          1 60N      -0.749000
     15 N15          0.9510    -0.0460     0.8240 nb         1 60N      -0.647000
     16 H1           3.6750     1.3180    -0.6900 ha         1 60N       0.089000
     17 H3          -1.4330    -0.3680     1.3990 h1         1 60N       0.044700
     18 H6          -0.4540     2.4700    -0.9740 ha         1 60N       0.097000
     19 H7           1.9340     2.8310    -1.6350 ha         1 60N       0.039000
     20 H2          -2.4800     2.2270     0.9090 ho         1 60N       0.483000
@<TRIPOS>BOND
     1     1     2 ar  
     2     1    12 ar  
     3     1    16 1   
     4     2     3 1   
     5     2    15 ar  
     6     3    13 1   
     7     3    14 1   
     8     4     5 1   
     9     4    20 1   
    10     5     6 1   
    11     5    10 1   
    12     5    17 1   
    13     6     7 1   
    14     6     8 1   
    15     6     9 1   
    16    10    11 ar  
    17    10    15 ar  
    18    11    12 ar  
    19    11    18 1   
    20    12    19 1   
@<TRIPOS>SUBSTRUCTURE
     1 60N         1 TEMP              0 ****  ****    0 ROOT
