@<TRIPOS>MOLECULE
60N
   20    20     1     0     0
SMALL
abcg2


@<TRIPOS>ATOM
      1 C10          2.6660     1.1620    -0.3800 ca         1 60N      -0.214000
      2 C11          2.1750     0.0970     0.3690 ca         1 60N       0.296500
      3 C12          3.1130    -1.0260     0.8160 c          1 60N       0.615500
      4 O01         -2.0830     2.0030     0.8510 oh         1 60N      -0.768000
      5 C02         -1.3830     0.7820     0.7550 c3         1 60N      -0.231000
      6 P03         -2.3240    -0.2770    -0.5370 p5         1 60N       1.282500
      7 O04         -1.3290    -0.7040    -1.6090 o          1 60N      -0.904167
      8 O05         -2.9790    -1.4260     0.2250 o          1 60N      -0.904167
      9 O06         -3.3270     0.8120    -1.0060 o          1 60N      -0.904167
     10 C07          0.0440     0.9700     0.3580 ca         1 60N       0.438300
     11 C08          0.4580     2.0760    -0.3840 ca         1 60N      -0.185000
     12 C09          1.7870     2.1680    -0.7530 ca         1 60N      -0.131000
     13 O13          2.6270    -1.9150     1.5360 o          1 60N      -0.749000
     14 O14          4.2910    -0.9470     0.4120 o          1 60N      -0.749000
     15 N15          0.8970     0.0190     0.7290 nb         1 60N      -0.647000
     16 H1           3.7110     1.2010    -0.6520 ha         1 60N       0.089000
     17 H3          -1.3940     0.2500     1.7160 h1         1 60N       0.044700
     18 H6          -0.2510     2.8460    -0.6570 ha         1 60N       0.097000
     19 H7           2.1390     3.0180    -1.3250 ha         1 60N       0.039000
     20 H2          -2.7560     1.8860     0.1300 ho         1 60N       0.483000
@<TRIPOS>BOND
     1     1     2 ar  
     2     1    12 ar  
     3     1    16 1   
     4     2     3 1   
     5     2    15 ar  
     6     3    13 1   
     7     3    14 1   
     8     4     5 1   
     9     4    20 1   
    10     5     6 1   
    11     5    10 1   
    12     5    17 1   
    13     6     7 1   
    14     6     8 1   
    15     6     9 1   
    16    10    11 ar  
    17    10    15 ar  
    18    11    12 ar  
    19    11    18 1   
    20    12    19 1   
@<TRIPOS>SUBSTRUCTURE
     1 60N         1 TEMP              0 ****  ****    0 ROOT
