@<TRIPOS>MOLECULE
60O
   66    71     1     0     0
SMALL
No Charge or Current Charge


@<TRIPOS>ATOM
      1 C1           5.2600     0.2360     0.8980 c3         1 60O       0.169600
      2 C3           3.0000    -0.7590     0.9370 ca         1 60O       0.150100
      3 O2           3.9110     0.1270     0.4010 os         1 60O      -0.336100
      4 C12         -1.4370    -2.7720    -0.1360 ca         1 60O      -0.242800
      5 C13         -2.6450    -2.2380    -0.5210 ca         1 60O       0.151500
      6 C15         -3.3410    -4.3550    -1.0780 ca         1 60O       0.179900
      7 C17         -1.2150    -4.1480    -0.2680 ca         1 60O       0.434900
      8 C19         -3.6900     0.0950    -0.6370 cy         1 60O       0.059300
      9 C20         -3.4160     1.3490    -1.5340 cy         1 60O      -0.091400
     10 C21         -4.5930     2.0250    -0.7490 cy         1 60O      -0.078700
     11 C22         -4.1390     1.1260     0.4520 cy         1 60O      -0.091400
     12 C23         -4.5730     3.5530    -0.5750 c3         1 60O       0.179800
     13 C25         -7.0200     3.9620     0.1350 cy         1 60O       0.144800
     14 C26         -7.1200     5.1040     1.1990 cy         1 60O      -0.106400
     15 C27         -5.7240     5.5250     0.6330 cy         1 60O       0.144800
     16 C28          6.0280     1.3220     0.0900 c6         1 60O       0.165300
     17 C30          6.8620     1.7840    -2.1430 c6         1 60O       0.156600
     18 C4           3.3190    -1.6210     2.0100 ca         1 60O      -0.206000
     19 C5           2.3450    -2.4970     2.5170 ca         1 60O      -0.074000
     20 C6           1.0580    -2.5200     1.9550 ca         1 60O      -0.158000
     21 C7           0.7340    -1.6740     0.8790 ca         1 60O       0.022200
     22 C8           1.7100    -0.7900     0.3830 ca         1 60O      -0.144000
     23 C9          -0.6060    -1.6880     0.2980 cc         1 60O      -0.065400
     24 C10         -1.3390    -0.5240     0.1540 cd         1 60O      -0.155100
     25 N11         -2.6210    -0.8510    -0.3540 na         1 60O      -0.163400
     26 N14         -3.6250    -3.0340    -0.9980 nb         1 60O      -0.237000
     27 N16         -2.1740    -4.9540    -0.7420 nb         1 60O      -0.308000
     28 N24         -5.5530     4.0640     0.3880 nq         1 60O      -0.715600
     29 O29          6.2400     0.8290    -1.2560 os         1 60O      -0.442000
     30 C31          8.2660     2.1590    -1.6120 c6         1 60O      -0.114400
     31 C32          8.1790     2.6710    -0.1530 c6         1 60O      -0.072400
     32 C33          7.4000     1.6660     0.7310 c6         1 60O      -0.109400
     33 H1           5.2500     0.5290     1.9560 h1         1 60O       0.042700
     34 H2           5.7910    -0.7200     0.8070 h1         1 60O       0.042700
     35 H3          -4.1290    -5.0010    -1.4620 h5         1 60O       0.042100
     36 H4          -4.5330    -0.5000    -1.0100 h1         1 60O       0.100700
     37 H5          -2.4350     1.8160    -1.3840 hc         1 60O       0.062450
     38 H6          -3.5740     1.2090    -2.6080 hc         1 60O       0.062450
     39 H7          -5.5790     1.7490    -1.1440 hc         1 60O       0.058700
     40 H8          -4.9350     0.7920     1.1260 hc         1 60O       0.062450
     41 H9          -3.3250     1.5440     1.0560 hc         1 60O       0.062450
     42 H10         -3.5680     3.8470    -0.2430 h1         1 60O       0.033700
     43 H11         -4.7550     4.0140    -1.5560 h1         1 60O       0.033700
     44 H13         -7.3420     4.2630    -0.8710 h1         1 60O       0.045450
     45 H14         -7.9330     5.8230     1.0590 hc         1 60O       0.058200
     46 H15         -7.1120     4.7640     2.2410 hc         1 60O       0.058200
     47 H16         -5.7800     6.1460    -0.2710 h1         1 60O       0.045450
     48 H17         -5.0430     5.9760     1.3650 h1         1 60O       0.045450
     49 H18          5.4070     2.2300     0.0480 h1         1 60O       0.045700
     50 H19          6.9440     1.3410    -3.1460 h1         1 60O       0.045700
     51 H20          6.2280     2.6800    -2.2150 h1         1 60O       0.045700
     52 H21          4.3060    -1.6210     2.4620 ha         1 60O       0.115000
     53 H22          2.5860    -3.1560     3.3490 ha         1 60O       0.111000
     54 H23          0.3040    -3.1890     2.3650 ha         1 60O       0.124000
     55 H24          1.4710    -0.1280    -0.4440 ha         1 60O       0.130000
     56 H25         -1.0560     0.4960     0.3940 h4         1 60O       0.221000
     57 H26          0.1350    -5.6790    -0.3410 hn         1 60O       0.499500
     58 H27          0.7700    -4.1550     0.1940 hn         1 60O       0.499500
     59 H29          8.9230     1.2800    -1.6610 hc         1 60O       0.050700
     60 H30          8.7180     2.9260    -2.2560 hc         1 60O       0.050700
     61 H31          9.1870     2.8320     0.2540 hc         1 60O       0.043200
     62 H32          7.6730     3.6470    -0.1350 hc         1 60O       0.043200
     63 H33          7.2530     2.0880     1.7350 hc         1 60O       0.049700
     64 H34          7.9910     0.7480     0.8580 hc         1 60O       0.049700
     65 N18         -0.0370    -4.7480     0.0290 nv         1 60O      -1.074900
     66 H12         -7.4960     3.0170     0.4220 h1         1 60O       0.045450
@<TRIPOS>BOND
     1     1     3 1   
     2     1    16 1   
     3     1    33 1   
     4     1    34 1   
     5     2     3 1   
     6     2    18 ar  
     7     2    22 ar  
     8     4     5 ar  
     9     4     7 ar  
    10     4    23 1   
    11     5    25 1   
    12     5    26 ar  
    13     6    26 ar  
    14     6    27 ar  
    15     6    35 1   
    16     7    27 ar  
    17     7    65 1   
    18     8     9 1   
    19     8    11 1   
    20     8    25 1   
    21     8    36 1   
    22     9    10 1   
    23     9    37 1   
    24     9    38 1   
    25    10    11 1   
    26    10    12 1   
    27    10    39 1   
    28    11    40 1   
    29    11    41 1   
    30    12    28 1   
    31    12    42 1   
    32    12    43 1   
    33    13    14 1   
    34    13    28 1   
    35    13    44 1   
    36    13    66 1   
    37    14    15 1   
    38    14    45 1   
    39    14    46 1   
    40    15    28 1   
    41    15    47 1   
    42    15    48 1   
    43    16    29 1   
    44    16    32 1   
    45    16    49 1   
    46    17    29 1   
    47    17    30 1   
    48    17    50 1   
    49    17    51 1   
    50    18    19 ar  
    51    18    52 1   
    52    19    20 ar  
    53    19    53 1   
    54    20    21 ar  
    55    20    54 1   
    56    21    22 ar  
    57    21    23 1   
    58    22    55 1   
    59    23    24 2   
    60    24    25 1   
    61    24    56 1   
    62    30    31 1   
    63    30    59 1   
    64    30    60 1   
    65    31    32 1   
    66    31    61 1   
    67    31    62 1   
    68    32    63 1   
    69    32    64 1   
    70    57    65 1   
    71    58    65 1   
@<TRIPOS>SUBSTRUCTURE
     1 60O         1 TEMP              0 ****  ****    0 ROOT
