@<TRIPOS>MOLECULE
60O
   66    71     1     0     0
SMALL
abcg2


@<TRIPOS>ATOM
      1 C1           5.0130     0.3570     0.8880 c3         1 60O       0.169600
      2 C3           2.9020    -0.7410     0.9220 ca         1 60O       0.150100
      3 O2           3.6810     0.2390     0.4250 os         1 60O      -0.336100
      4 C12         -1.4520    -2.9170    -0.0890 ca         1 60O      -0.242800
      5 C13         -2.7160    -2.4200    -0.4290 ca         1 60O       0.151500
      6 C15         -3.4620    -4.4170    -1.0050 ca         1 60O       0.179900
      7 C17         -1.2720    -4.2980    -0.3240 ca         1 60O       0.434900
      8 C19         -3.8270    -0.1940    -0.4960 cy         1 60O       0.059300
      9 C20         -3.7090     0.8510    -1.6190 cy         1 60O      -0.091400
     10 C21         -4.5320     1.8020    -0.7270 cy         1 60O      -0.078700
     11 C22         -4.1400     0.9420     0.4890 cy         1 60O      -0.091400
     12 C23         -4.1620     3.2670    -0.7060 c3         1 60O       0.179800
     13 C25         -6.2790     4.1580     0.2710 cy         1 60O       0.144800
     14 C26         -6.0960     5.5450     0.9030 cy         1 60O      -0.106400
     15 C27         -4.6190     5.3960     0.5100 cy         1 60O       0.144800
     16 C28          5.6560     1.5390     0.1990 c6         1 60O       0.165300
     17 C30          6.2550     2.3220    -1.9370 c6         1 60O       0.156600
     18 C4           3.3160    -1.6630     1.8800 ca         1 60O      -0.206000
     19 C5           2.4160    -2.6260     2.3230 ca         1 60O      -0.074000
     20 C6           1.1250    -2.6850     1.8310 ca         1 60O      -0.158000
     21 C7           0.7090    -1.7710     0.8550 ca         1 60O       0.022200
     22 C8           1.6060    -0.8080     0.4080 ca         1 60O      -0.144000
     23 C9          -0.6620    -1.7980     0.3380 cc         1 60O      -0.065400
     24 C10         -1.4770    -0.7060     0.2200 cd         1 60O      -0.155100
     25 N11         -2.7180    -1.0760    -0.2320 na         1 60O      -0.163400
     26 N14         -3.7460    -3.1370    -0.8830 nb         1 60O      -0.237000
     27 N16         -2.3040    -5.0250    -0.7650 nb         1 60O      -0.308000
     28 N24         -4.8300     3.9530     0.3690 nq         1 60O      -0.715600
     29 O29          5.7070     1.2590    -1.1830 os         1 60O      -0.442000
     30 C31          7.6770     2.6430    -1.5110 c6         1 60O      -0.114400
     31 C32          7.7240     2.9330    -0.0150 c6         1 60O      -0.072400
     32 C33          7.0460     1.8100     0.7630 c6         1 60O      -0.109400
     33 H1           5.0360     0.5210     1.9710 h1         1 60O       0.042700
     34 H2           5.5820    -0.5560     0.6750 h1         1 60O       0.042700
     35 H3          -4.2640    -5.0580    -1.3550 h5         1 60O       0.042100
     36 H4          -4.7010    -0.8250    -0.6480 h1         1 60O       0.100700
     37 H5          -2.6800     1.2040    -1.7290 hc         1 60O       0.062450
     38 H6          -4.0970     0.5820    -2.6000 hc         1 60O       0.062450
     39 H7          -5.5980     1.6860    -0.9420 hc         1 60O       0.058700
     40 H8          -4.8870     0.7500     1.2580 hc         1 60O       0.062450
     41 H9          -3.2400     1.3350     0.9670 hc         1 60O       0.062450
     42 H10         -3.0810     3.3660    -0.5590 h1         1 60O       0.033700
     43 H11         -4.3920     3.7190    -1.6880 h1         1 60O       0.033700
     44 H13         -6.6340     4.2270    -0.7680 h1         1 60O       0.045450
     45 H14         -6.6490     6.3710     0.4610 hc         1 60O       0.058200
     46 H15         -6.2500     5.5440     1.9810 hc         1 60O       0.058200
     47 H16         -4.3980     5.8940    -0.4450 h1         1 60O       0.045450
     48 H17         -3.8560     5.6870     1.2370 h1         1 60O       0.045450
     49 H18          5.0320     2.4320     0.3750 h1         1 60O       0.045700
     50 H19          6.2180     2.0140    -2.9840 h1         1 60O       0.045700
     51 H20          5.6270     3.2200    -1.8370 h1         1 60O       0.045700
     52 H21          4.3160    -1.6470     2.2900 ha         1 60O       0.115000
     53 H22          2.7350    -3.3340     3.0780 ha         1 60O       0.111000
     54 H23          0.4300    -3.4160     2.2260 ha         1 60O       0.124000
     55 H24          1.3080    -0.1010    -0.3570 ha         1 60O       0.130000
     56 H25         -1.2580     0.3210     0.4660 h4         1 60O       0.221000
     57 H26         -0.0240    -5.8950    -0.4140 hn         1 60O       0.499500
     58 H27          0.7380    -4.4330     0.0710 hn         1 60O       0.499500
     59 H29          8.3290     1.7970    -1.7470 hc         1 60O       0.050700
     60 H30          8.0410     3.4970    -2.0870 hc         1 60O       0.050700
     61 H31          8.7550     3.0570     0.3210 hc         1 60O       0.043200
     62 H32          7.2130     3.8780     0.1920 hc         1 60O       0.043200
     63 H33          6.9650     2.0710     1.8210 hc         1 60O       0.049700
     64 H34          7.6490     0.8980     0.7020 hc         1 60O       0.049700
     65 N18         -0.1100    -4.9360    -0.1270 nv         1 60O      -1.074900
     66 H12         -6.8960     3.4260     0.7990 h1         1 60O       0.045450
@<TRIPOS>BOND
     1     1     3 1   
     2     1    16 1   
     3     1    33 1   
     4     1    34 1   
     5     2     3 1   
     6     2    18 ar  
     7     2    22 ar  
     8     4     5 ar  
     9     4     7 ar  
    10     4    23 1   
    11     5    25 1   
    12     5    26 ar  
    13     6    26 ar  
    14     6    27 ar  
    15     6    35 1   
    16     7    27 ar  
    17     7    65 1   
    18     8     9 1   
    19     8    11 1   
    20     8    25 1   
    21     8    36 1   
    22     9    10 1   
    23     9    37 1   
    24     9    38 1   
    25    10    11 1   
    26    10    12 1   
    27    10    39 1   
    28    11    40 1   
    29    11    41 1   
    30    12    28 1   
    31    12    42 1   
    32    12    43 1   
    33    13    14 1   
    34    13    28 1   
    35    13    44 1   
    36    13    66 1   
    37    14    15 1   
    38    14    45 1   
    39    14    46 1   
    40    15    28 1   
    41    15    47 1   
    42    15    48 1   
    43    16    29 1   
    44    16    32 1   
    45    16    49 1   
    46    17    29 1   
    47    17    30 1   
    48    17    50 1   
    49    17    51 1   
    50    18    19 ar  
    51    18    52 1   
    52    19    20 ar  
    53    19    53 1   
    54    20    21 ar  
    55    20    54 1   
    56    21    22 ar  
    57    21    23 1   
    58    22    55 1   
    59    23    24 2   
    60    24    25 1   
    61    24    56 1   
    62    30    31 1   
    63    30    59 1   
    64    30    60 1   
    65    31    32 1   
    66    31    61 1   
    67    31    62 1   
    68    32    63 1   
    69    32    64 1   
    70    57    65 1   
    71    58    65 1   
@<TRIPOS>SUBSTRUCTURE
     1 60O         1 TEMP              0 ****  ****    0 ROOT
