@<TRIPOS>MOLECULE
60P
   14    14     1     0     0
SMALL
bcc


@<TRIPOS>ATOM
      1 S01          0.9270     1.3850    -0.0290 ss         1 60P      -0.083800
      2 C02         -0.1360     0.0280    -0.0370 cc         1 60P      -0.067700
      3 C03          0.5570    -1.1540     0.0150 cd         1 60P      -0.129300
      4 C04          1.9660    -0.9350     0.0610 cd         1 60P      -0.162000
      5 C05          2.3100     0.3840     0.0440 cc         1 60P      -0.194100
      6 C06         -0.0420    -2.5270     0.0200 c3         1 60P       0.003200
      7 C07         -1.6090     0.3140    -0.0980 c          1 60P       0.942200
      8 O08         -2.3800    -0.6630    -0.1100 o          1 60P      -0.820300
      9 O09         -1.9120     1.5240    -0.1310 o          1 60P      -0.820300
     10 H041         2.6900    -1.7380     0.1070 ha         1 60P       0.115000
     11 H051         3.3040     0.8050     0.0710 h4         1 60P       0.135000
     12 H061        -0.5850    -2.7320    -0.9020 hc         1 60P       0.027700
     13 H062         0.7380    -3.2810     0.1240 hc         1 60P       0.027700
     14 H063        -0.7500    -2.6560     0.8370 hc         1 60P       0.027700
@<TRIPOS>BOND
     1     1     2 1   
     2     1     5 1   
     3     2     3 2   
     4     2     7 1   
     5     3     4 1   
     6     3     6 1   
     7     4     5 2   
     8     4    10 1   
     9     5    11 1   
    10     6    12 1   
    11     6    13 1   
    12     6    14 1   
    13     7     8 1   
    14     7     9 1   
@<TRIPOS>SUBSTRUCTURE
     1 60P         1 TEMP              0 ****  ****    0 ROOT
