@<TRIPOS>MOLECULE
60P
   14    14     1     0     0
SMALL
No Charge or Current Charge


@<TRIPOS>ATOM
      1 S01          0.9750     1.4490    -0.0290 ss         1 60P       0.206000
      2 C02         -0.1300     0.0770    -0.0430 cc         1 60P      -0.212600
      3 C03          0.5520    -1.1320     0.0130 cd         1 60P      -0.129300
      4 C04          1.9630    -0.9360     0.0670 cd         1 60P      -0.144000
      5 C05          2.3600     0.3740     0.0530 cc         1 60P      -0.321000
      6 C06         -0.0540    -2.5170     0.0210 c3         1 60P       0.003200
      7 C07         -1.6050     0.2890    -0.1080 c          1 60P       0.731600
      8 O08         -2.3620    -0.6700    -0.1170 o          1 60P      -0.715000
      9 O09         -2.0190     1.4380    -0.1520 o          1 60P      -0.715000
     10 H041         2.6700    -1.7580     0.1150 ha         1 60P       0.097000
     11 H051         3.3600     0.7880     0.0850 h4         1 60P       0.117000
     12 H061        -0.6390    -2.6990    -0.8890 hc         1 60P       0.027700
     13 H062         0.7200    -3.2920     0.0700 hc         1 60P       0.027700
     14 H063        -0.7120    -2.6570     0.8860 hc         1 60P       0.027700
@<TRIPOS>BOND
     1     1     2 1   
     2     1     5 1   
     3     2     3 2   
     4     2     7 1   
     5     3     4 1   
     6     3     6 1   
     7     4     5 2   
     8     4    10 1   
     9     5    11 1   
    10     6    12 1   
    11     6    13 1   
    12     6    14 1   
    13     7     8 1   
    14     7     9 1   
@<TRIPOS>SUBSTRUCTURE
     1 60P         1 TEMP              0 ****  ****    0 ROOT
