@<TRIPOS>MOLECULE
60Q
   22    23     1     0     0
SMALL
No Charge or Current Charge


@<TRIPOS>ATOM
      1 C13          3.1270     0.4470     0.8760 cc         1 60Q      -0.206500
      2 C01         -1.9140     2.0920     0.3540 ca         1 60Q      -0.139000
      3 C02         -0.5550     1.7500     0.2660 ca         1 60Q      -0.138000
      4 C03         -0.1640     0.4260    -0.0300 ca         1 60Q      -0.000200
      5 C04         -1.1560    -0.5670    -0.2380 ca         1 60Q      -0.117600
      6 C05         -2.5190    -0.2100    -0.1380 ca         1 60Q      -0.089000
      7 C06         -2.8960     1.1120     0.1530 ca         1 60Q      -0.136000
      8 C07         -0.7920    -2.0000    -0.5530 c          1 60Q       0.712600
      9 O08         -1.3360    -2.8840     0.0940 o          1 60Q      -0.702500
     10 O09         -0.0240    -2.2190    -1.4790 o          1 60Q      -0.702500
     11 N10          1.1950     0.1030    -0.0810 na         1 60Q       0.154200
     12 C11          1.9560     0.7690    -1.0430 cd         1 60Q      -0.167000
     13 C12          3.1890     0.9080    -0.4600 cc         1 60Q      -0.206500
     14 C14          1.8550     0.0140     1.1450 cd         1 60Q      -0.167000
     15 H131         3.9500     0.4960     1.5830 ha         1 60Q       0.109000
     16 H051        -3.2890    -0.9640    -0.2920 ha         1 60Q       0.124000
     17 H061        -3.9490     1.3740     0.2230 ha         1 60Q       0.090000
     18 H111         1.5740     1.0640    -2.0130 h4         1 60Q       0.142000
     19 H121         4.0660     1.3580    -0.9170 ha         1 60Q       0.109000
     20 H141         1.3860    -0.3380     2.0570 h4         1 60Q       0.142000
     21 H011        -2.2040     3.1150     0.5820 ha         1 60Q       0.089000
     22 H021         0.2000     2.5150     0.4350 ha         1 60Q       0.101000
@<TRIPOS>BOND
     1     1    13 1   
     2     1    14 2   
     3     1    15 1   
     4     2     3 ar  
     5     2     7 ar  
     6     2    21 1   
     7     3     4 ar  
     8     3    22 1   
     9     4     5 ar  
    10     4    11 1   
    11     5     6 ar  
    12     5     8 1   
    13     6     7 ar  
    14     6    16 1   
    15     7    17 1   
    16     8     9 1   
    17     8    10 1   
    18    11    12 1   
    19    11    14 1   
    20    12    13 2   
    21    12    18 1   
    22    13    19 1   
    23    14    20 1   
@<TRIPOS>SUBSTRUCTURE
     1 60Q         1 TEMP              0 ****  ****    0 ROOT
