@<TRIPOS>MOLECULE
60Q
   22    23     1     0     0
SMALL
bcc


@<TRIPOS>ATOM
      1 C13          3.1830    -0.0690     0.6810 cc         1 60Q      -0.224500
      2 C01         -2.1690     2.1410     0.0660 ca         1 60Q      -0.157000
      3 C02         -0.7950     1.9590     0.0660 ca         1 60Q      -0.156000
      4 C03         -0.2550     0.6780     0.0060 ca         1 60Q      -0.000200
      5 C04         -1.0820    -0.4470    -0.0360 ca         1 60Q      -0.117600
      6 C05         -2.4590    -0.2410     0.0220 ca         1 60Q      -0.107000
      7 C06         -3.0060     1.0340     0.0530 ca         1 60Q      -0.154000
      8 C07         -0.5610    -1.8680    -0.2240 c          1 60Q       0.923200
      9 O08         -1.0910    -2.7420     0.4870 o          1 60Q      -0.807800
     10 O09          0.3080    -2.0190    -1.0970 o          1 60Q      -0.807800
     11 N10          1.1510     0.5450     0.0460 na         1 60Q       0.052800
     12 C11          2.0290     1.1610    -0.8000 cd         1 60Q      -0.134300
     13 C12          3.2990     0.8010    -0.4350 cc         1 60Q      -0.224500
     14 C14          1.8460    -0.2080     0.9460 cd         1 60Q      -0.134300
     15 H131         3.9870    -0.5310     1.2320 ha         1 60Q       0.127000
     16 H051        -3.1170    -1.1010     0.0160 ha         1 60Q       0.142000
     17 H061        -4.0800     1.1620     0.0720 ha         1 60Q       0.108000
     18 H111         1.6770     1.7920    -1.6010 h4         1 60Q       0.160000
     19 H121         4.2100     1.1190    -0.9190 ha         1 60Q       0.127000
     20 H141         1.3350    -0.7620     1.7170 h4         1 60Q       0.160000
     21 H011        -2.5790     3.1420     0.1020 ha         1 60Q       0.107000
     22 H021        -0.1320     2.8140     0.1250 ha         1 60Q       0.119000
@<TRIPOS>BOND
     1     1    13 1   
     2     1    14 2   
     3     1    15 1   
     4     2     3 ar  
     5     2     7 ar  
     6     2    21 1   
     7     3     4 ar  
     8     3    22 1   
     9     4     5 ar  
    10     4    11 1   
    11     5     6 ar  
    12     5     8 1   
    13     6     7 ar  
    14     6    16 1   
    15     7    17 1   
    16     8     9 1   
    17     8    10 1   
    18    11    12 1   
    19    11    14 1   
    20    12    13 2   
    21    12    18 1   
    22    13    19 1   
    23    14    20 1   
@<TRIPOS>SUBSTRUCTURE
     1 60Q         1 TEMP              0 ****  ****    0 ROOT
