@<TRIPOS>MOLECULE
60R
   44    48     1     0     0
SMALL
abcg2


@<TRIPOS>ATOM
      1 C10         18.8880   -61.8820   -11.8490 ca         1 60R      -0.047000
      2 C13         16.4210   -60.7910   -11.2780 ca         1 60R      -0.191000
      3 C14         17.4830   -59.9470   -11.6170 ca         1 60R       0.190100
      4 C15         18.0260   -57.6370   -12.1800 c3         1 60R       0.214900
      5 C16         19.2530   -57.4710   -11.3410 ca         1 60R      -0.120300
      6 C17         20.2040   -58.4950   -11.3700 ca         1 60R      -0.040800
      7 C18         21.3430   -58.3960   -10.5710 ca         1 60R      -0.091000
      8 C19         21.5450   -57.2760    -9.7740 ca         1 60R      -0.100000
      9 C22         22.2580   -58.0580   -13.6640 ca         1 60R      -0.088000
     10 C23         23.4560   -57.5230   -14.1170 ca         1 60R      -0.103000
     11 C12         16.6210   -62.1520   -11.2380 ca         1 60R       0.206000
     12 C11         17.8440   -62.7320   -11.5210 ca         1 60R      -0.185000
     13 C9          18.7540   -60.4860   -11.9130 ca         1 60R      -0.142800
     14 O3          17.1360   -58.6320   -11.6320 os         1 60R      -0.349100
     15 C21         19.4600   -56.3500   -10.5420 ca         1 60R      -0.086000
     16 C20         20.6080   -56.2460    -9.7640 ca         1 60R      -0.109000
     17 C8          19.9610   -59.6780   -12.2320 ce         1 60R       0.011600
     18 C7          20.8030   -60.0750   -13.2030 cf         1 60R      -0.146200
     19 C6          22.0430   -59.4430   -13.6620 ca         1 60R      -0.046800
     20 C5          23.0530   -60.2710   -14.1670 ca         1 60R      -0.118000
     21 C4          24.2500   -59.7410   -14.6220 ca         1 60R      -0.081000
     22 N           25.2620   -60.5480   -15.1640 ns         1 60R      -0.141000
     23 C1          26.5270   -60.1110   -15.3600 c          1 60R       0.540000
     24 O1          27.4290   -60.8210   -15.7840 o          1 60R      -0.534000
     25 C3          24.4580   -58.3610   -14.5830 ca         1 60R       0.084100
     26 O2          25.6150   -57.8310   -15.0840 os         1 60R      -0.331100
     27 C2          26.7680   -58.6680   -14.9570 c6         1 60R       0.076600
     28 H1          19.8630   -62.3080   -12.0370 ha         1 60R       0.115000
     29 H2          15.4490   -60.3670   -11.0660 ha         1 60R       0.147000
     30 H3          18.2800   -57.9170   -13.2060 h1         1 60R       0.066200
     31 H4          17.4310   -56.7270   -12.2000 h1         1 60R       0.066200
     32 H5          22.0730   -59.1950   -10.5860 ha         1 60R       0.122000
     33 H6          22.4350   -57.2060    -9.1610 ha         1 60R       0.117000
     34 H7          21.4840   -57.3900   -13.3170 ha         1 60R       0.129000
     35 H8          23.6210   -56.4540   -14.1240 ha         1 60R       0.134000
     36 H9          17.9770   -63.8030   -11.4660 ha         1 60R       0.136000
     37 H10         18.7220   -55.5570   -10.5340 ha         1 60R       0.117000
     38 H11         20.7680   -55.3710    -9.1470 ha         1 60R       0.118000
     39 H12         20.5530   -60.9920   -13.7270 ha         1 60R       0.181000
     40 H13         22.9030   -61.3440   -14.2080 ha         1 60R       0.119000
     41 H14         25.0670   -61.5250   -15.3450 hn         1 60R       0.166000
     42 H15         27.5360   -58.2450   -15.5980 h1         1 60R       0.085700
     43 H16         27.1240   -58.6620   -13.9190 h1         1 60R       0.085700
     44 F           15.5760   -62.9500   -10.9030 f          1 60R      -0.179000
@<TRIPOS>BOND
     1     1    12 ar  
     2     1    13 ar  
     3     1    28 1   
     4     2     3 ar  
     5     2    11 ar  
     6     2    29 1   
     7     3    13 ar  
     8     3    14 1   
     9     4     5 1   
    10     4    14 1   
    11     4    30 1   
    12     4    31 1   
    13     5     6 ar  
    14     5    15 ar  
    15     6     7 ar  
    16     6    17 1   
    17     7     8 ar  
    18     7    32 1   
    19     8    16 ar  
    20     8    33 1   
    21     9    10 ar  
    22     9    19 ar  
    23     9    34 1   
    24    10    25 ar  
    25    10    35 1   
    26    11    12 ar  
    27    11    44 1   
    28    12    36 1   
    29    13    17 1   
    30    15    16 ar  
    31    15    37 1   
    32    16    38 1   
    33    17    18 2   
    34    18    19 1   
    35    18    39 1   
    36    19    20 ar  
    37    20    21 ar  
    38    20    40 1   
    39    21    22 1   
    40    21    25 ar  
    41    22    23 1   
    42    22    41 1   
    43    23    24 2   
    44    23    27 1   
    45    25    26 1   
    46    26    27 1   
    47    27    42 1   
    48    27    43 1   
@<TRIPOS>SUBSTRUCTURE
     1 60R         1 TEMP              0 ****  ****    0 ROOT
