@<TRIPOS>MOLECULE
60R
   44    48     1     0     0
SMALL
No Charge or Current Charge


@<TRIPOS>ATOM
      1 C10         18.9040   -61.9000   -11.6630 ca         1 60R      -0.047000
      2 C13         16.3600   -60.7680   -11.3740 ca         1 60R      -0.191000
      3 C14         17.4440   -59.9400   -11.7040 ca         1 60R       0.190100
      4 C15         18.0590   -57.6200   -12.3710 c3         1 60R       0.214900
      5 C16         19.2050   -57.4810   -11.3870 ca         1 60R      -0.120300
      6 C17         20.1440   -58.5200   -11.3020 ca         1 60R      -0.040800
      7 C18         21.2330   -58.4120   -10.4160 ca         1 60R      -0.091000
      8 C19         21.3780   -57.2680    -9.6130 ca         1 60R      -0.100000
      9 C22         22.3620   -58.0970   -13.5030 ca         1 60R      -0.088000
     10 C23         23.5640   -57.5350   -13.9730 ca         1 60R      -0.103000
     11 C12         16.5390   -62.1430   -11.1950 ca         1 60R       0.206000
     12 C11         17.8070   -62.7130   -11.3390 ca         1 60R      -0.185000
     13 C9          18.7470   -60.5080   -11.8510 ca         1 60R      -0.142800
     14 O3          17.1350   -58.6010   -11.8760 os         1 60R      -0.349100
     15 C21         19.3480   -56.3350   -10.5810 ca         1 60R      -0.086000
     16 C20         20.4340   -56.2300    -9.6940 ca         1 60R      -0.109000
     17 C8          19.9810   -59.7190   -12.1610 ce         1 60R       0.011600
     18 C7          20.8880   -60.1180   -13.1030 cf         1 60R      -0.146200
     19 C6          22.1410   -59.4910   -13.5750 ca         1 60R      -0.046800
     20 C5          23.1310   -60.3100   -14.1570 ca         1 60R      -0.118000
     21 C4          24.3340   -59.7500   -14.6190 ca         1 60R      -0.081000
     22 N           25.3210   -60.5400   -15.2480 ns         1 60R      -0.141000
     23 C1          26.5250   -60.0510   -15.7080 c          1 60R       0.540000
     24 O1          27.1930   -60.6120   -16.5700 o          1 60R      -0.534000
     25 C3          24.5560   -58.3610   -14.5170 ca         1 60R       0.084100
     26 O2          25.7350   -57.8100   -14.9850 os         1 60R      -0.331100
     27 C2          26.8920   -58.6890   -15.0830 c6         1 60R       0.076600
     28 H1          19.8890   -62.3550   -11.7510 ha         1 60R       0.115000
     29 H2          15.3690   -60.3390   -11.2620 ha         1 60R       0.147000
     30 H3          18.4400   -57.9070   -13.3600 h1         1 60R       0.066200
     31 H4          17.5530   -56.6530   -12.4840 h1         1 60R       0.066200
     32 H5          21.9630   -59.2150   -10.3540 ha         1 60R       0.122000
     33 H6          22.2200   -57.1870    -8.9290 ha         1 60R       0.117000
     34 H7          21.6010   -57.4330   -13.1050 ha         1 60R       0.129000
     35 H8          23.7240   -56.4610   -13.9140 ha         1 60R       0.134000
     36 H9          17.9410   -63.7820   -11.1940 ha         1 60R       0.136000
     37 H10         18.6230   -55.5260   -10.6420 ha         1 60R       0.117000
     38 H11         20.5450   -55.3440    -9.0730 ha         1 60R       0.118000
     39 H12         20.6560   -61.0440   -13.6280 ha         1 60R       0.181000
     40 H13         22.9670   -61.3820   -14.2450 ha         1 60R       0.119000
     41 H14         25.0410   -61.4570   -15.5720 hn         1 60R       0.166000
     42 H15         27.6740   -58.2170   -15.6920 h1         1 60R       0.085700
     43 H16         27.2820   -58.8880   -14.0760 h1         1 60R       0.085700
     44 F           15.4830   -62.9240   -10.8810 f          1 60R      -0.179000
@<TRIPOS>BOND
     1     1    12 ar  
     2     1    13 ar  
     3     1    28 1   
     4     2     3 ar  
     5     2    11 ar  
     6     2    29 1   
     7     3    13 ar  
     8     3    14 1   
     9     4     5 1   
    10     4    14 1   
    11     4    30 1   
    12     4    31 1   
    13     5     6 ar  
    14     5    15 ar  
    15     6     7 ar  
    16     6    17 1   
    17     7     8 ar  
    18     7    32 1   
    19     8    16 ar  
    20     8    33 1   
    21     9    10 ar  
    22     9    19 ar  
    23     9    34 1   
    24    10    25 ar  
    25    10    35 1   
    26    11    12 ar  
    27    11    44 1   
    28    12    36 1   
    29    13    17 1   
    30    15    16 ar  
    31    15    37 1   
    32    16    38 1   
    33    17    18 2   
    34    18    19 1   
    35    18    39 1   
    36    19    20 ar  
    37    20    21 ar  
    38    20    40 1   
    39    21    22 1   
    40    21    25 ar  
    41    22    23 1   
    42    22    41 1   
    43    23    24 2   
    44    23    27 1   
    45    25    26 1   
    46    26    27 1   
    47    27    42 1   
    48    27    43 1   
@<TRIPOS>SUBSTRUCTURE
     1 60R         1 TEMP              0 ****  ****    0 ROOT
