@<TRIPOS>MOLECULE
60S
   48    51     1     0     0
SMALL
No Charge or Current Charge


@<TRIPOS>ATOM
      1 C1           1.2950     0.2070     0.2390 c5         1 60S       0.305500
      2 C2           1.0180     1.0220    -1.0430 c5         1 60S      -0.174700
      3 C4           2.4530     2.0090     1.1450 c2         1 60S       0.693800
      4 C5           1.9920     2.1860    -1.2360 c          1 60S       0.589000
      5 C7          -2.4800     0.2260    -0.1150 ca         1 60S       0.431900
      6 C10         -4.2460    -1.0460     0.5880 ca         1 60S       0.409900
      7 C11          2.4710    -0.7490     0.1470 cc         1 60S      -0.249300
      8 N12         -3.2490     1.2040    -0.6360 nb         1 60S      -0.275000
      9 C14         -5.1390    -0.0830     0.0800 ca         1 60S      -0.084000
     10 C15         -0.4200     1.5680    -0.8320 c5         1 60S       0.266800
     11 C18          3.3160    -1.0750     1.1850 cd         1 60S      -0.118000
     12 C19          4.2390    -2.4150    -0.4840 cc         1 60S      -0.153000
     13 C24          4.3200    -2.0140     0.8260 cd         1 60S      -0.079000
     14 N3           2.4760     2.7460    -0.0370 n          1 60S      -0.383300
     15 N6           1.3670     1.2370     1.3070 nu         1 60S      -0.902400
     16 N8          -2.9170    -0.8930     0.4910 nb         1 60S      -0.325000
     17 N9          -1.0840     0.3850    -0.2200 nh         1 60S      -0.788300
     18 C13         -0.0860    -0.5380     0.4190 c5         1 60S       0.249800
     19 S16          2.8980    -1.6450    -1.3150 ss         1 60S       0.292000
     20 C17         -4.5840     1.0520    -0.5380 ca         1 60S       0.174300
     21 N20         -4.7080    -2.2020     1.2160 nu         1 60S      -0.928100
     22 N21          5.8030    -4.1020    -1.6640 n1         1 60S      -0.433000
     23 N22          3.1010     2.2810     2.1930 n2         1 60S      -0.886100
     24 C23          5.0900    -3.3390    -1.1440 cg         1 60S       0.344000
     25 O25          2.3590     2.5840    -2.3340 o          1 60S      -0.521000
     26 F26         -6.4840    -0.2400     0.1790 f          1 60S      -0.182000
     27 C27          3.2620     4.0030    -0.1380 c3         1 60S       0.073300
     28 C28         -5.4500     2.1550    -1.1240 c3         1 60S      -0.148400
     29 C29         -3.9000    -3.2930     1.7930 c3         1 60S       0.227100
     30 H1           1.0210     0.4100    -1.9500 hc         1 60S       0.098700
     31 H2          -0.4480     2.4360    -0.1570 h1         1 60S       0.071700
     32 H3          -0.8750     1.8640    -1.7880 h1         1 60S       0.071700
     33 H4           3.2340    -0.6610     2.1870 ha         1 60S       0.150000
     34 H5           5.0740    -2.3770     1.5200 ha         1 60S       0.149000
     35 H6          -0.0720    -1.5050    -0.1000 h1         1 60S       0.068200
     36 H7          -0.3040    -0.7290     1.4790 h1         1 60S       0.068200
     37 H8          -5.7260    -2.2850     1.2720 hn         1 60S       0.511000
     38 H9           3.7880     3.0060     1.9560 hn         1 60S       0.406400
     39 H11          4.3140     3.7670    -0.3430 h1         1 60S       0.055033
     40 H12          2.8720     4.6360    -0.9450 h1         1 60S       0.055033
     41 H13          3.1930     4.5730     0.7970 h1         1 60S       0.055033
     42 H14         -6.1040     1.7590    -1.9110 hc         1 60S       0.059367
     43 H15         -6.0870     2.6000    -0.3510 hc         1 60S       0.059367
     44 H16         -4.8490     2.9590    -1.5640 hc         1 60S       0.059367
     45 H17         -4.5500    -4.0700     2.2190 h1         1 60S       0.042033
     46 H18         -3.2690    -3.7550     1.0220 h1         1 60S       0.042033
     47 H19         -3.2500    -2.9110     2.5920 h1         1 60S       0.042033
     48 H20          1.2970     0.9350     2.2710 hn         1 60S       0.510000
@<TRIPOS>BOND
     1     1     2 1   
     2     1     7 1   
     3     1    15 1   
     4     1    18 1   
     5     2     4 1   
     6     2    10 1   
     7     2    30 1   
     8     3    14 1   
     9     3    15 1   
    10     3    23 2   
    11     4    14 1   
    12     4    25 2   
    13     5     8 ar  
    14     5    16 ar  
    15     5    17 1   
    16     6     9 ar  
    17     6    16 ar  
    18     6    21 1   
    19     7    11 2   
    20     7    19 1   
    21     8    20 ar  
    22     9    20 ar  
    23     9    26 1   
    24    10    17 1   
    25    10    31 1   
    26    10    32 1   
    27    11    13 1   
    28    11    33 1   
    29    12    13 2   
    30    12    19 1   
    31    12    24 1   
    32    13    34 1   
    33    14    27 1   
    34    15    48 1   
    35    17    18 1   
    36    18    35 1   
    37    18    36 1   
    38    20    28 1   
    39    21    29 1   
    40    21    37 1   
    41    22    24 3   
    42    23    38 1   
    43    27    39 1   
    44    27    40 1   
    45    27    41 1   
    46    28    42 1   
    47    28    43 1   
    48    28    44 1   
    49    29    45 1   
    50    29    46 1   
    51    29    47 1   
@<TRIPOS>SUBSTRUCTURE
     1 60S         1 TEMP              0 ****  ****    0 ROOT
