@<TRIPOS>MOLECULE
60S
   48    51     1     0     0
SMALL
bcc


@<TRIPOS>ATOM
      1 C1           1.1960     0.1270     0.1660 c5         1 60S       0.305500
      2 C2           1.0120     1.0040    -1.0730 c5         1 60S      -0.174700
      3 C4           2.0540     2.1350     1.3030 c2         1 60S       0.693800
      4 C5           1.9790     2.1520    -1.1420 c          1 60S       0.731500
      5 C7          -2.4120     0.2170    -0.1370 ca         1 60S       0.957900
      6 C10         -4.1460    -1.0210     0.6560 ca         1 60S       0.738200
      7 C11          2.4050    -0.7720     0.1050 cc         1 60S      -0.104400
      8 N12         -3.1650     1.2020    -0.6160 nb         1 60S      -0.801000
      9 C14         -5.0120    -0.0250     0.1650 ca         1 60S      -0.249700
     10 C15         -0.4540     1.4490    -0.9770 c5         1 60S       0.266800
     11 C18          3.4810    -0.7730     0.9490 cd         1 60S      -0.136000
     12 C19          4.1110    -2.4350    -0.5210 cc         1 60S      -0.008100
     13 C24          4.4620    -1.7240     0.5950 cd         1 60S      -0.097000
     14 N3           2.4880     2.6000     0.0510 n          1 60S      -0.450300
     15 N6           1.2550     1.0270     1.2820 nu         1 60S      -0.847200
     16 N8          -2.8370    -0.8840     0.4870 nb         1 60S      -0.851000
     17 N9          -1.0740     0.3340    -0.2960 nh         1 60S      -0.788300
     18 C13         -0.1320    -0.6340     0.2110 c5         1 60S       0.249800
     19 S16          2.5790    -1.9440    -1.1380 ss         1 60S       0.002200
     20 C17         -4.4910     1.0710    -0.4650 ca         1 60S       0.502600
     21 N20         -4.6060    -2.1070     1.2900 nu         1 60S      -0.872900
     22 N21          5.4590    -4.2940    -1.6580 n1         1 60S      -0.343800
     23 N22          2.3400     2.6710     2.4190 n2         1 60S      -0.886100
     24 C23          4.8540    -3.4570    -1.1450 cg         1 60S       0.254800
     25 O25          2.2820     2.6520    -2.2050 o          1 60S      -0.596500
     26 F26         -6.3460    -0.1800     0.3260 f          1 60S      -0.146900
     27 C27          3.4580     3.6860     0.0430 c3         1 60S       0.073300
     28 C28         -5.3650     2.1500    -1.0220 c3         1 60S      -0.148400
     29 C29         -3.7380    -3.1390     1.8010 c3         1 60S       0.227100
     30 H1           1.1460     0.4110    -1.9800 hc         1 60S       0.098700
     31 H2          -0.5660     2.3800    -0.4130 h1         1 60S       0.071700
     32 H3          -0.8770     1.6130    -1.9680 h1         1 60S       0.071700
     33 H4           3.5770    -0.1140     1.7990 ha         1 60S       0.168000
     34 H5           5.3850    -1.8790     1.1330 ha         1 60S       0.167000
     35 H6          -0.0890    -1.5300    -0.4190 h1         1 60S       0.068200
     36 H7          -0.3780    -0.9630     1.2220 h1         1 60S       0.068200
     37 H8          -5.5980    -2.2230     1.3950 hn         1 60S       0.455800
     38 H9           2.8590     3.5340     2.3350 hn         1 60S       0.406400
     39 H11          4.2830     3.4480     0.7110 h1         1 60S       0.055033
     40 H12          3.8540     3.8060    -0.9580 h1         1 60S       0.055033
     41 H13          3.0040     4.6270     0.3530 h1         1 60S       0.055033
     42 H14         -5.7570     1.8560    -1.9980 hc         1 60S       0.059367
     43 H15         -6.2180     2.3660    -0.3810 hc         1 60S       0.059367
     44 H16         -4.7890     3.0620    -1.1560 hc         1 60S       0.059367
     45 H17         -4.3520    -3.8700     2.3180 h1         1 60S       0.042033
     46 H18         -3.1920    -3.6470     1.0050 h1         1 60S       0.042033
     47 H19         -3.0100    -2.7370     2.5060 h1         1 60S       0.042033
     48 H20          1.0520     0.6550     2.1970 hn         1 60S       0.454800
@<TRIPOS>BOND
     1     1     2 1   
     2     1     7 1   
     3     1    15 1   
     4     1    18 1   
     5     2     4 1   
     6     2    10 1   
     7     2    30 1   
     8     3    14 1   
     9     3    15 1   
    10     3    23 2   
    11     4    14 1   
    12     4    25 2   
    13     5     8 ar  
    14     5    16 ar  
    15     5    17 1   
    16     6     9 ar  
    17     6    16 ar  
    18     6    21 1   
    19     7    11 2   
    20     7    19 1   
    21     8    20 ar  
    22     9    20 ar  
    23     9    26 1   
    24    10    17 1   
    25    10    31 1   
    26    10    32 1   
    27    11    13 1   
    28    11    33 1   
    29    12    13 2   
    30    12    19 1   
    31    12    24 1   
    32    13    34 1   
    33    14    27 1   
    34    15    48 1   
    35    17    18 1   
    36    18    35 1   
    37    18    36 1   
    38    20    28 1   
    39    21    29 1   
    40    21    37 1   
    41    22    24 3   
    42    23    38 1   
    43    27    39 1   
    44    27    40 1   
    45    27    41 1   
    46    28    42 1   
    47    28    43 1   
    48    28    44 1   
    49    29    45 1   
    50    29    46 1   
    51    29    47 1   
@<TRIPOS>SUBSTRUCTURE
     1 60S         1 TEMP              0 ****  ****    0 ROOT
