@<TRIPOS>MOLECULE
60U
   50    53     1     0     0
SMALL
No Charge or Current Charge


@<TRIPOS>ATOM
      1 C10          2.6180    -0.7700     0.0480 cc         1 60U      -0.250300
      2 C11         -4.1170    -0.6700     0.3590 ca         1 60U       0.378300
      3 C13          0.0740    -0.4150     0.2930 c5         1 60U       0.247800
      4 C14         -0.0980     1.8010    -0.7910 c5         1 60U       0.264800
      5 C15         -4.9290     0.3910    -0.0880 ca         1 60U      -0.032000
      6 C17         -4.2910     1.5330    -0.6050 ca         1 60U       0.163300
      7 C18          3.4150    -1.2330     1.0720 cd         1 60U      -0.116000
      8 N3           2.8500     2.7200     0.1430 n          1 60U      -0.382300
      9 C19          4.2910    -2.4930    -0.6830 cc         1 60U      -0.150000
     10 C22          5.0970    -3.4140    -1.4010 cg         1 60U       0.343000
     11 C7          -2.2530     0.5450    -0.2170 ca         1 60U       0.428900
     12 C1           1.5030     0.2500     0.1960 c5         1 60U       0.306500
     13 C2           1.3060     1.1790    -1.0210 c5         1 60U      -0.174700
     14 C4           2.7530     1.8950     1.2630 c2         1 60U       0.692800
     15 C5           2.3580     2.2880    -1.1050 c          1 60U       0.589000
     16 N6           1.6170     1.1850     1.3440 nu         1 60U      -0.903400
     17 N8          -2.7720    -0.5870     0.2910 nb         1 60U      -0.332000
     18 N9          -0.8490     0.6190    -0.2860 nh         1 60U      -0.785300
     19 N12         -2.9480     1.6080    -0.6700 nb         1 60U      -0.262000
     20 S16          3.0220    -1.5730    -1.4740 ss         1 60U       0.290000
     21 N20          5.7720    -4.1780    -1.9680 n1         1 60U      -0.431000
     22 N21          3.3950     2.0400     2.3390 n2         1 60U      -0.884100
     23 C23          4.3660    -2.2040     0.6560 cd         1 60U      -0.080000
     24 O24          2.7730     2.7450    -2.1620 o          1 60U      -0.519000
     25 O27         -4.7230    -1.8020     0.8700 os         1 60U      -0.444300
     26 C28         -5.0740     2.7330    -1.1150 c3         1 60U      -0.149400
     27 C29         -3.9420    -2.9160     1.3410 c3         1 60U       0.173600
     28 C30         -4.9220    -3.9910     1.8360 c3         1 60U      -0.100100
     29 H1           0.0370    -1.3370    -0.3030 h1         1 60U       0.069200
     30 H2          -0.1780    -0.6750     1.3300 h1         1 60U       0.069200
     31 H3          -0.0840     2.6130    -0.0490 h1         1 60U       0.073200
     32 H4          -0.5120     2.2000    -1.7280 h1         1 60U       0.073200
     33 H5           3.3350    -0.8960     2.1020 ha         1 60U       0.150000
     34 H6           1.2900     0.6420    -1.9730 hc         1 60U       0.098700
     35 H7           4.1320     2.7350     2.1730 hn         1 60U       0.407400
     36 H9           5.0780    -2.6710     1.3320 ha         1 60U       0.150000
     37 H10          4.7570     3.6380    -0.0490 h1         1 60U       0.055367
     38 H11          3.3880     4.6440    -0.6050 h1         1 60U       0.055367
     39 H12          3.6640     4.4240     1.1320 h1         1 60U       0.055367
     40 H13         -5.6990     3.1560    -0.3200 hc         1 60U       0.062033
     41 H14         -4.4140     3.5290    -1.4790 hc         1 60U       0.062033
     42 H15         -5.7340     2.4440    -1.9420 hc         1 60U       0.062033
     43 H16         -3.3220    -3.3290     0.5340 h1         1 60U       0.049200
     44 H17         -3.2840    -2.6120     2.1670 h1         1 60U       0.049200
     45 H18         -5.5410    -3.6020     2.6530 hc         1 60U       0.050033
     46 H19         -5.5790    -4.3190     1.0220 hc         1 60U       0.050033
     47 H20         -4.3720    -4.8640     2.2060 hc         1 60U       0.050033
     48 H21          1.5060     0.8150     2.2790 hn         1 60U       0.510000
     49 C26          3.7170     3.9250     0.1560 c3         1 60U       0.072300
     50 F25         -6.2820     0.3180    -0.0250 f          1 60U      -0.158000
@<TRIPOS>BOND
     1     1     7 2   
     2     1    12 1   
     3     1    20 1   
     4     2     5 ar  
     5     2    17 ar  
     6     2    25 1   
     7     3    12 1   
     8     3    18 1   
     9     3    29 1   
    10     3    30 1   
    11     4    13 1   
    12     4    18 1   
    13     4    31 1   
    14     4    32 1   
    15     5     6 ar  
    16     5    50 1   
    17     6    19 ar  
    18     6    26 1   
    19     7    23 1   
    20     7    33 1   
    21     8    14 1   
    22     8    15 1   
    23     8    49 1   
    24     9    10 1   
    25     9    20 1   
    26     9    23 2   
    27    10    21 3   
    28    11    17 ar  
    29    11    18 1   
    30    11    19 ar  
    31    12    13 1   
    32    12    16 1   
    33    13    15 1   
    34    13    34 1   
    35    14    16 1   
    36    14    22 2   
    37    15    24 2   
    38    16    48 1   
    39    22    35 1   
    40    23    36 1   
    41    25    27 1   
    42    26    40 1   
    43    26    41 1   
    44    26    42 1   
    45    27    28 1   
    46    27    43 1   
    47    27    44 1   
    48    28    45 1   
    49    28    46 1   
    50    28    47 1   
    51    37    49 1   
    52    38    49 1   
    53    39    49 1   
@<TRIPOS>SUBSTRUCTURE
     1 60U         1 TEMP              0 ****  ****    0 ROOT
