@<TRIPOS>MOLECULE
60U
   50    53     1     0     0
SMALL
bcc


@<TRIPOS>ATOM
      1 C10          2.5390    -0.7790     0.0150 cc         1 60U      -0.105400
      2 C11         -4.0110    -0.6390     0.4170 ca         1 60U       0.706600
      3 C13          0.0210    -0.4810     0.0920 c5         1 60U       0.247800
      4 C14         -0.1470     1.7030    -0.9400 c5         1 60U       0.264800
      5 C15         -4.8140     0.4360     0.0300 ca         1 60U      -0.197700
      6 C17         -4.2090     1.5520    -0.4960 ca         1 60U       0.491600
      7 C18          3.5150    -1.0110     0.9430 cd         1 60U      -0.134000
      8 N3           2.8590     2.5660     0.1940 n          1 60U      -0.449300
      9 C19          4.1510    -2.4970    -0.7030 cc         1 60U      -0.005100
     10 C22          4.8670    -3.4840    -1.4100 cg         1 60U       0.253800
     11 C7          -2.1910     0.5380    -0.2270 ca         1 60U       0.954900
     12 C1           1.3940     0.1950     0.1170 c5         1 60U       0.306500
     13 C2           1.2860     1.1680    -1.0570 c5         1 60U      -0.174700
     14 C4           2.3750     2.0460     1.4050 c2         1 60U       0.692800
     15 C5           2.3290     2.2500    -1.0320 c          1 60U       0.731500
     16 N6           1.4900     1.0100     1.2950 nu         1 60U      -0.848200
     17 N8          -2.7070    -0.5870     0.2830 nb         1 60U      -0.858000
     18 N9          -0.8500     0.5830    -0.3500 nh         1 60U      -0.785300
     19 N12         -2.8800     1.6030    -0.6230 nb         1 60U      -0.788000
     20 S16          2.7430    -1.7670    -1.3760 ss         1 60U       0.000200
     21 N20          5.4510    -4.2910    -1.9920 n1         1 60U      -0.341800
     22 N21          2.6830     2.4760     2.5610 n2         1 60U      -0.884100
     23 C23          4.4410    -1.9960     0.5370 cd         1 60U      -0.098000
     24 O24          2.6740     2.8090    -2.0500 o          1 60U      -0.594500
     25 O27         -4.6020    -1.7080     0.9150 os         1 60U      -0.421100
     26 C28         -5.0070     2.7390    -0.9290 c3         1 60U      -0.149400
     27 C29         -3.7890    -2.8390     1.2630 c3         1 60U       0.150400
     28 C30         -4.7050    -3.9080     1.8050 c3         1 60U      -0.100100
     29 H1           0.0170    -1.3280    -0.6020 h1         1 60U       0.069200
     30 H2          -0.2590    -0.8660     1.0750 h1         1 60U       0.069200
     31 H3          -0.2030     2.5910    -0.3030 h1         1 60U       0.073200
     32 H4          -0.5490     1.9680    -1.9170 h1         1 60U       0.073200
     33 H5           3.5760    -0.4980     1.8910 ha         1 60U       0.168000
     34 H6           1.3900     0.6380    -2.0060 hc         1 60U       0.098700
     35 H7           3.2690     3.2990     2.5460 hn         1 60U       0.407400
     36 H9           5.2840    -2.3250     1.1270 ha         1 60U       0.168000
     37 H10          4.6970     3.2490     0.9260 h1         1 60U       0.055367
     38 H11          4.3110     3.7460    -0.7170 h1         1 60U       0.055367
     39 H12          3.4990     4.5290     0.6400 h1         1 60U       0.055367
     40 H13         -5.4450     3.2460    -0.0680 hc         1 60U       0.062033
     41 H14         -4.3700     3.4460    -1.4530 hc         1 60U       0.062033
     42 H15         -5.8280     2.4540    -1.5870 hc         1 60U       0.062033
     43 H16         -3.2560    -3.1900     0.3780 h1         1 60U       0.049200
     44 H17         -3.0440    -2.5460     2.0050 h1         1 60U       0.049200
     45 H18         -5.2190    -3.5790     2.7080 hc         1 60U       0.050033
     46 H19         -5.4510    -4.2120     1.0700 hc         1 60U       0.050033
     47 H20         -4.1120    -4.7860     2.0600 hc         1 60U       0.050033
     48 H21          1.2370     0.5950     2.1780 hn         1 60U       0.454800
     49 C26          3.8960     3.5840     0.2710 c3         1 60U       0.072300
     50 F25         -6.1500     0.3650     0.1710 f          1 60U      -0.122900
@<TRIPOS>BOND
     1     1     7 2   
     2     1    12 1   
     3     1    20 1   
     4     2     5 ar  
     5     2    17 ar  
     6     2    25 1   
     7     3    12 1   
     8     3    18 1   
     9     3    29 1   
    10     3    30 1   
    11     4    13 1   
    12     4    18 1   
    13     4    31 1   
    14     4    32 1   
    15     5     6 ar  
    16     5    50 1   
    17     6    19 ar  
    18     6    26 1   
    19     7    23 1   
    20     7    33 1   
    21     8    14 1   
    22     8    15 1   
    23     8    49 1   
    24     9    10 1   
    25     9    20 1   
    26     9    23 2   
    27    10    21 3   
    28    11    17 ar  
    29    11    18 1   
    30    11    19 ar  
    31    12    13 1   
    32    12    16 1   
    33    13    15 1   
    34    13    34 1   
    35    14    16 1   
    36    14    22 2   
    37    15    24 2   
    38    16    48 1   
    39    22    35 1   
    40    23    36 1   
    41    25    27 1   
    42    26    40 1   
    43    26    41 1   
    44    26    42 1   
    45    27    28 1   
    46    27    43 1   
    47    27    44 1   
    48    28    45 1   
    49    28    46 1   
    50    28    47 1   
    51    37    49 1   
    52    38    49 1   
    53    39    49 1   
@<TRIPOS>SUBSTRUCTURE
     1 60U         1 TEMP              0 ****  ****    0 ROOT
