@<TRIPOS>MOLECULE
60V
   47    50     1     0     0
SMALL
abcg2


@<TRIPOS>ATOM
      1 N1          -1.2650    -1.0280     1.3000 nu         1 60V      -0.899400
      2 C2          -4.4060     1.8060     0.6440 cc         1 60V      -0.079000
      3 C3          -4.0510     2.5040    -0.4780 cd         1 60V      -0.150000
      4 C6          -2.0930    -2.1160     1.2910 c2         1 60V       0.690800
      5 C8          -1.9620    -2.1080    -1.1520 c          1 60V       0.590000
      6 C9          -0.9860    -0.9690    -1.0500 c5         1 60V      -0.173700
      7 C10          0.4720    -1.4340    -0.9370 c5         1 60V       0.264800
      8 C11          0.1550     0.6360     0.2770 c5         1 60V       0.248800
      9 C12          2.4280    -0.2250    -0.0700 ca         1 60V       0.428900
     10 C13          4.5110    -1.0760    -0.4090 ca         1 60V       0.163300
     11 C16          4.1610     0.9880     0.7250 ca         1 60V       0.372300
     12 C17          3.7780     3.0210     1.8470 c3         1 60V       0.157900
     13 C15          5.0380     0.0170     0.2350 ca         1 60V      -0.030000
     14 C14          5.3840    -2.1470    -0.9780 c3         1 60V      -0.149400
     15 N5           3.1890    -1.1990    -0.5580 nb         1 60V      -0.261000
     16 O1           4.6760     2.0310     1.3490 os         1 60V      -0.436300
     17 N6           2.8650     0.8690     0.5660 nb         1 60V      -0.329000
     18 N4           1.0950    -0.3380    -0.2260 nh         1 60V      -0.783300
     19 O           -2.2460    -2.5910    -2.2270 o          1 60V      -0.519000
     20 N3          -2.4970    -2.5680     0.0240 n          1 60V      -0.382300
     21 C7          -3.4720    -3.6480    -0.0150 c3         1 60V       0.071300
     22 N2          -2.4240    -2.6510     2.3950 n2         1 60V      -0.883100
     23 C5          -1.1810    -0.1100     0.1990 c5         1 60V       0.304500
     24 C           -2.3760     0.8060     0.1390 cd         1 60V      -0.252300
     25 C1          -3.4430     0.8340     0.9930 cc         1 60V      -0.116000
     26 S           -2.5370     1.9760    -1.1090 ss         1 60V       0.289000
     27 C4          -4.7760     3.5410    -1.0980 ch         1 60V       0.343000
     28 N           -5.3680     4.3880    -1.6100 n1         1 60V      -0.431000
     29 H1          -5.3200     1.9840     1.1910 ha         1 60V       0.150000
     30 H2          -1.0990    -0.3620    -1.9500 hc         1 60V       0.098700
     31 H3           0.5630    -2.3740    -0.3850 h1         1 60V       0.073700
     32 H4           0.9120    -1.5850    -1.9230 h1         1 60V       0.073700
     33 H5           0.3870     0.9500     1.2960 h1         1 60V       0.069200
     34 H6           0.1330     1.5380    -0.3440 h1         1 60V       0.069200
     35 H7           3.2200     3.4950     1.0390 h1         1 60V       0.050700
     36 H8           3.0740     2.5980     2.5620 h1         1 60V       0.050700
     37 H9           4.4000     3.7610     2.3410 h1         1 60V       0.050700
     38 H10          5.7990    -1.8290    -1.9370 hc         1 60V       0.062033
     39 H11          6.2220    -2.3860    -0.3260 hc         1 60V       0.062033
     40 H12          4.8030    -3.0510    -1.1490 hc         1 60V       0.062033
     41 H13         -4.3340    -3.3940     0.5990 h1         1 60V       0.056033
     42 H14         -3.8100    -3.7880    -1.0350 h1         1 60V       0.056033
     43 H15         -3.0410    -4.5850     0.3380 h1         1 60V       0.056033
     44 H16         -2.9620    -3.4990     2.2900 hn         1 60V       0.407400
     45 H18         -3.5440     0.1810     1.8470 ha         1 60V       0.150000
     46 H19         -1.0890    -0.6660     2.2250 hn         1 60V       0.509000
     47 F            6.3650     0.1670     0.3950 f          1 60V      -0.157000
@<TRIPOS>BOND
     1     1     4 1   
     2     1    23 1   
     3     1    46 1   
     4     2     3 2   
     5     2    25 1   
     6     2    29 1   
     7     3    26 1   
     8     3    27 1   
     9     4    20 1   
    10     4    22 2   
    11     5     6 1   
    12     5    19 2   
    13     5    20 1   
    14     6     7 1   
    15     6    23 1   
    16     6    30 1   
    17     7    18 1   
    18     7    31 1   
    19     7    32 1   
    20     8    18 1   
    21     8    23 1   
    22     8    33 1   
    23     8    34 1   
    24     9    15 ar  
    25     9    17 ar  
    26     9    18 1   
    27    10    13 ar  
    28    10    14 1   
    29    10    15 ar  
    30    11    13 ar  
    31    11    16 1   
    32    11    17 ar  
    33    12    16 1   
    34    12    35 1   
    35    12    36 1   
    36    12    37 1   
    37    13    47 1   
    38    14    38 1   
    39    14    39 1   
    40    14    40 1   
    41    20    21 1   
    42    21    41 1   
    43    21    42 1   
    44    21    43 1   
    45    22    44 1   
    46    23    24 1   
    47    24    25 2   
    48    24    26 1   
    49    25    45 1   
    50    27    28 3   
@<TRIPOS>SUBSTRUCTURE
     1 60V         1 TEMP              0 ****  ****    0 ROOT
