@<TRIPOS>MOLECULE
60V
   47    50     1     0     0
SMALL
No Charge or Current Charge


@<TRIPOS>ATOM
      1 N1          -1.4320    -1.2250     1.2400 nu         1 60V      -0.899400
      2 C2          -3.8730     2.3680     0.9900 cc         1 60V      -0.079000
      3 C3          -4.4010     2.2690    -0.2720 cd         1 60V      -0.150000
      4 C6          -2.5350    -1.9500     1.0050 c2         1 60V       0.690800
      5 C8          -1.9490    -2.1320    -1.3490 c          1 60V       0.590000
      6 C9          -0.9760    -0.9740    -1.1050 c5         1 60V      -0.173700
      7 C10          0.4510    -1.5370    -0.8620 c5         1 60V       0.264800
      8 C11          0.1060     0.5440     0.4290 c5         1 60V       0.248800
      9 C12          2.5040    -0.2380    -0.0510 ca         1 60V       0.428900
     10 C13          4.6100    -1.0760    -0.4290 ca         1 60V       0.163300
     11 C16          4.2680     1.0040     0.7430 ca         1 60V       0.372300
     12 C17          3.9220     3.1260     1.9370 c3         1 60V       0.157900
     13 C15          5.1580     0.0370     0.2330 ca         1 60V      -0.030000
     14 C14          5.4820    -2.1750    -1.0150 c3         1 60V      -0.149400
     15 N5           3.2770    -1.2120    -0.5710 nb         1 60V      -0.261000
     16 O1           4.7850     2.1060     1.3960 os         1 60V      -0.436300
     17 N6           2.9350     0.8600     0.5960 nb         1 60V      -0.329000
     18 N4           1.1100    -0.3760    -0.2000 nh         1 60V      -0.783300
     19 O           -2.2640    -2.5220    -2.4660 o          1 60V      -0.519000
     20 N3          -2.5040    -2.6870    -0.1790 n          1 60V      -0.382300
     21 C7          -3.2990    -3.9330    -0.3230 c3         1 60V       0.071300
     22 N2          -3.2680    -2.1910     2.0020 n2         1 60V      -0.883100
     23 C5          -1.2670    -0.1930     0.1880 c5         1 60V       0.304500
     24 C           -2.4490     0.7570     0.0910 cd         1 60V      -0.252300
     25 C1          -2.7630     1.5120     1.1980 cc         1 60V      -0.116000
     26 S           -3.5350     1.0970    -1.2740 ss         1 60V       0.289000
     27 C4          -5.5010     2.9610    -0.8350 ch         1 60V       0.343000
     28 N           -6.4110     3.5450    -1.2750 n1         1 60V      -0.431000
     29 H1          -4.2530     3.0290     1.7640 ha         1 60V       0.150000
     30 H2          -0.9550    -0.3330    -1.9920 hc         1 60V       0.098700
     31 H3           0.4470    -2.4200    -0.2060 h1         1 60V       0.073700
     32 H4           0.9320    -1.8170    -1.8100 h1         1 60V       0.073700
     33 H5           0.2930     0.7110     1.4980 h1         1 60V       0.069200
     34 H6           0.1110     1.5210    -0.0740 h1         1 60V       0.069200
     35 H7           3.3190     3.5890     1.1450 h1         1 60V       0.050700
     36 H8           3.2440     2.7070     2.6910 h1         1 60V       0.050700
     37 H9           4.5160     3.9150     2.4160 h1         1 60V       0.050700
     38 H10          6.1630    -1.7690    -1.7720 hc         1 60V       0.062033
     39 H11          6.0900    -2.6480    -0.2350 hc         1 60V       0.062033
     40 H12          4.8850    -2.9620    -1.4930 hc         1 60V       0.062033
     41 H13         -4.3330    -3.6850    -0.5960 h1         1 60V       0.056033
     42 H14         -2.8680    -4.5760    -1.1010 h1         1 60V       0.056033
     43 H15         -3.2980    -4.4990     0.6170 h1         1 60V       0.056033
     44 H16         -3.9680    -2.8860     1.7160 hn         1 60V       0.407400
     45 H18         -2.2360     1.4750     2.1480 ha         1 60V       0.150000
     46 H19         -1.4230    -0.9270     2.2070 hn         1 60V       0.509000
     47 F            6.5010     0.1720     0.3750 f          1 60V      -0.157000
@<TRIPOS>BOND
     1     1     4 1   
     2     1    23 1   
     3     1    46 1   
     4     2     3 2   
     5     2    25 1   
     6     2    29 1   
     7     3    26 1   
     8     3    27 1   
     9     4    20 1   
    10     4    22 2   
    11     5     6 1   
    12     5    19 2   
    13     5    20 1   
    14     6     7 1   
    15     6    23 1   
    16     6    30 1   
    17     7    18 1   
    18     7    31 1   
    19     7    32 1   
    20     8    18 1   
    21     8    23 1   
    22     8    33 1   
    23     8    34 1   
    24     9    15 ar  
    25     9    17 ar  
    26     9    18 1   
    27    10    13 ar  
    28    10    14 1   
    29    10    15 ar  
    30    11    13 ar  
    31    11    16 1   
    32    11    17 ar  
    33    12    16 1   
    34    12    35 1   
    35    12    36 1   
    36    12    37 1   
    37    13    47 1   
    38    14    38 1   
    39    14    39 1   
    40    14    40 1   
    41    20    21 1   
    42    21    41 1   
    43    21    42 1   
    44    21    43 1   
    45    22    44 1   
    46    23    24 1   
    47    24    25 2   
    48    24    26 1   
    49    25    45 1   
    50    27    28 3   
@<TRIPOS>SUBSTRUCTURE
     1 60V         1 TEMP              0 ****  ****    0 ROOT
