@<TRIPOS>MOLECULE
60W
   54    58     1     0     0
SMALL
abcg2


@<TRIPOS>ATOM
      1 C1          -3.3050     0.6630    -0.2430 cc         1 60W      -0.061000
      2 C2          -2.1520     0.0850     0.3720 cc         1 60W      -0.096000
      3 C3          -0.9920     0.3670    -0.2800 cd         1 60W      -0.261300
      4 C4           0.3950    -0.1060     0.0620 c5         1 60W       0.307500
      5 C5          -0.0430    -2.2490     1.1830 c2         1 60W       0.688800
      6 C8           1.0750    -0.9060    -1.0490 c5         1 60W      -0.171700
      7 C11          3.8450     0.9270     0.4150 ca         1 60W       0.423900
      8 C12          6.1000     0.6870     0.4990 ca         1 60W       0.373300
      9 C13          7.1220    -1.2330    -0.3970 c3         1 60W       0.156900
     10 C14          6.1870     1.9270     1.1460 ca         1 60W      -0.025000
     11 C15          5.0190     2.5960     1.3840 ca         1 60W       0.136900
     12 C16         -4.6720     0.5040     0.2670 ca         1 60W      -0.016000
     13 C17         -5.7620     0.5220    -0.5990 ca         1 60W      -0.064000
     14 C20         -6.1990     0.1900     2.1250 ca         1 60W      -0.112000
     15 C21         -4.9100     0.3350     1.6330 ca         1 60W      -0.079000
     16 C22         -8.1600     0.4020    -1.0030 cg         1 60W       0.321000
     17 N6          -9.0530     0.4170    -1.7300 n1         1 60W      -0.449000
     18 C18         -7.0540     0.3830    -0.0990 ca         1 60W      -0.016000
     19 C19         -7.2840     0.2150     1.2660 ca         1 60W      -0.069000
     20 C           -2.9750     1.3810    -1.3570 cd         1 60W      -0.224000
     21 S           -1.2940     1.3580    -1.6610 ss         1 60W       0.239000
     22 C10          1.3940     1.0330     0.2870 c5         1 60W       0.247800
     23 N3           2.6670     0.3980     0.0350 nh         1 60W      -0.781300
     24 C9           2.5600    -0.8610    -0.6720 c5         1 60W       0.263800
     25 C7           0.5460    -2.3050    -1.1910 c          1 60W       0.590000
     26 O            0.6400    -2.9040    -2.2420 o          1 60W      -0.523000
     27 N2          -0.0330    -2.8630    -0.0800 n          1 60W      -0.380300
     28 N1          -0.4120    -2.8110     2.2630 n2         1 60W      -0.885100
     29 N            0.4050    -0.9580     1.2210 nu         1 60W      -0.895400
     30 N5           3.8320     2.1110     1.0200 nb         1 60W      -0.256000
     31 F            7.3790     2.4230     1.5110 f          1 60W      -0.155000
     32 N4           4.9380     0.2000     0.1430 nb         1 60W      -0.324000
     33 O1           7.2170     0.0260     0.2660 os         1 60W      -0.435300
     34 H1          -2.2030    -0.5400     1.2530 ha         1 60W       0.145000
     35 H2          -1.6020    -4.2120     0.2440 h1         1 60W       0.055367
     36 H3          -0.6540    -4.4920    -1.2140 h1         1 60W       0.055367
     37 H4           0.0200    -4.9290     0.3550 h1         1 60W       0.055367
     38 H5           0.9330    -0.4100    -2.0110 hc         1 60W       0.099700
     39 H6           8.1400    -1.6030    -0.4720 h1         1 60W       0.052367
     40 H7           6.5160    -1.9390     0.1710 h1         1 60W       0.052367
     41 H8           6.6970    -1.1260    -1.3950 h1         1 60W       0.052367
     42 H9           5.0320     3.5590     1.8840 h4         1 60W       0.039100
     43 H10         -5.6130     0.6260    -1.6650 ha         1 60W       0.127000
     44 H11         -6.3570     0.0650     3.1880 ha         1 60W       0.123000
     45 H12         -4.0810     0.3310     2.3280 ha         1 60W       0.121000
     46 H13         -8.2910     0.1030     1.6420 ha         1 60W       0.128000
     47 H14         -3.6300     1.9460    -2.0030 h4         1 60W       0.158000
     48 H15          1.2060     1.8580    -0.4070 h1         1 60W       0.072700
     49 H16          1.3250     1.4340     1.2990 h1         1 60W       0.072700
     50 H17          2.8550    -1.7020    -0.0380 h1         1 60W       0.069700
     51 H18          3.1920    -0.8830    -1.5600 h1         1 60W       0.069700
     52 H19         -0.6450    -3.7880     2.1530 hn         1 60W       0.406400
     53 H20          0.2710    -0.5170     2.1190 hn         1 60W       0.506000
     54 C6          -0.5970    -4.2010    -0.1720 c3         1 60W       0.071300
@<TRIPOS>BOND
     1     1     2 1   
     2     1    12 1   
     3     1    20 2   
     4     2     3 2   
     5     2    34 1   
     6     3     4 1   
     7     3    21 1   
     8     4     6 1   
     9     4    22 1   
    10     4    29 1   
    11     5    27 1   
    12     5    28 2   
    13     5    29 1   
    14     6    24 1   
    15     6    25 1   
    16     6    38 1   
    17     7    23 1   
    18     7    30 ar  
    19     7    32 ar  
    20     8    10 ar  
    21     8    32 ar  
    22     8    33 1   
    23     9    33 1   
    24     9    39 1   
    25     9    40 1   
    26     9    41 1   
    27    10    11 ar  
    28    10    31 1   
    29    11    30 ar  
    30    11    42 1   
    31    12    13 ar  
    32    12    15 ar  
    33    13    18 ar  
    34    13    43 1   
    35    14    15 ar  
    36    14    19 ar  
    37    14    44 1   
    38    15    45 1   
    39    16    17 3   
    40    16    18 1   
    41    18    19 ar  
    42    19    46 1   
    43    20    21 1   
    44    20    47 1   
    45    22    23 1   
    46    22    48 1   
    47    22    49 1   
    48    23    24 1   
    49    24    50 1   
    50    24    51 1   
    51    25    26 2   
    52    25    27 1   
    53    27    54 1   
    54    28    52 1   
    55    29    53 1   
    56    35    54 1   
    57    36    54 1   
    58    37    54 1   
@<TRIPOS>SUBSTRUCTURE
     1 60W         1 TEMP              0 ****  ****    0 ROOT
