@<TRIPOS>MOLECULE
60W
   54    58     1     0     0
SMALL
No Charge or Current Charge


@<TRIPOS>ATOM
      1 C1          -3.3850     0.2640    -0.2580 cc         1 60W      -0.061000
      2 C2          -2.0930     0.0010     0.2810 cc         1 60W      -0.096000
      3 C3          -1.1960    -0.4810    -0.6400 cd         1 60W      -0.261300
      4 C4           0.2170    -0.7820    -0.1720 c5         1 60W       0.307500
      5 C5          -0.2670    -2.9680     0.4140 c2         1 60W       0.688800
      6 C8           1.1600    -1.2640    -1.2880 c5         1 60W      -0.171700
      7 C11          3.5050     0.9250     0.5760 ca         1 60W       0.423900
      8 C12          5.7830     1.1580     0.8110 ca         1 60W       0.373300
      9 C13          7.3550    -0.4950    -0.1070 c3         1 60W       0.156900
     10 C14          5.5690     2.3590     1.5180 ca         1 60W      -0.025000
     11 C15          4.2450     2.7790     1.7120 ca         1 60W       0.136900
     12 C16         -4.5670     0.7840     0.4670 ca         1 60W      -0.016000
     13 C17         -5.8090     1.0120    -0.1780 ca         1 60W      -0.064000
     14 C20         -5.5870     1.5660     2.5610 ca         1 60W      -0.112000
     15 C21         -4.4810     1.0710     1.8500 ca         1 60W      -0.079000
     16 C22         -8.1690     1.7310    -0.1440 cg         1 60W       0.321000
     17 N6          -9.1790     1.9100    -0.7020 n1         1 60W      -0.449000
     18 C18         -6.9210     1.5080     0.5330 ca         1 60W      -0.016000
     19 C19         -6.8070     1.7850     1.9060 ca         1 60W      -0.069000
     20 C           -3.4580    -0.0220    -1.6060 cd         1 60W      -0.224000
     21 S           -1.9200    -0.6280    -2.2460 ss         1 60W       0.239000
     22 C10          0.9840     0.4910     0.3590 c5         1 60W       0.247800
     23 N3           2.4240     0.1720     0.0800 nh         1 60W      -0.781300
     24 C9           2.5670    -1.1200    -0.6470 c5         1 60W       0.263800
     25 C7           0.9280    -2.7230    -1.6910 c          1 60W       0.590000
     26 O            1.1300    -3.1500    -2.8200 o          1 60W      -0.523000
     27 N2           0.4060    -3.5380    -0.6660 n          1 60W      -0.380300
     28 N1          -1.0320    -3.5800     1.2090 n2         1 60W      -0.885100
     29 N            0.2770    -1.8310     0.8730 nu         1 60W      -0.895400
     30 N5           3.2070     2.0610     1.2400 nb         1 60W      -0.256000
     31 F            6.6010     3.0940     2.0000 f          1 60W      -0.155000
     32 N4           4.7400     0.4420     0.3400 nb         1 60W      -0.324000
     33 O1           7.0790     0.7260     0.6090 os         1 60W      -0.435300
     34 H1          -1.8460     0.1650     1.3250 ha         1 60W       0.145000
     35 H2          -0.5830    -5.2400    -1.4660 h1         1 60W       0.055367
     36 H3           1.2030    -5.3250    -1.5160 h1         1 60W       0.055367
     37 H4           0.3570    -5.5550     0.0260 h1         1 60W       0.055367
     38 H5           1.1140    -0.6360    -2.1820 hc         1 60W       0.099700
     39 H6           8.4370    -0.6690    -0.1640 h1         1 60W       0.052367
     40 H7           6.8990    -1.3570     0.3980 h1         1 60W       0.052367
     41 H8           6.9640    -0.4460    -1.1320 h1         1 60W       0.052367
     42 H9           4.0100     3.6970     2.2490 h4         1 60W       0.039100
     43 H10         -5.9340     0.8100    -1.2370 ha         1 60W       0.127000
     44 H11         -5.4970     1.7790     3.6240 ha         1 60W       0.123000
     45 H12         -3.5560     0.9160     2.3950 ha         1 60W       0.121000
     46 H13         -7.6600     2.1680     2.4640 ha         1 60W       0.128000
     47 H14         -4.2900     0.0700    -2.2900 h4         1 60W       0.158000
     48 H15          0.6720     1.3870    -0.1950 h1         1 60W       0.072700
     49 H16          0.7850     0.6660     1.4250 h1         1 60W       0.072700
     50 H17          2.7990    -1.9420     0.0450 h1         1 60W       0.069700
     51 H18          3.3510    -1.0900    -1.4180 h1         1 60W       0.069700
     52 H19         -1.2310    -4.5020     0.8040 hn         1 60W       0.406400
     53 H20         -0.1040    -1.6180     1.7870 hn         1 60W       0.506000
     54 C6           0.3390    -5.0000    -0.9210 c3         1 60W       0.071300
@<TRIPOS>BOND
     1     1     2 1   
     2     1    12 1   
     3     1    20 2   
     4     2     3 2   
     5     2    34 1   
     6     3     4 1   
     7     3    21 1   
     8     4     6 1   
     9     4    22 1   
    10     4    29 1   
    11     5    27 1   
    12     5    28 2   
    13     5    29 1   
    14     6    24 1   
    15     6    25 1   
    16     6    38 1   
    17     7    23 1   
    18     7    30 ar  
    19     7    32 ar  
    20     8    10 ar  
    21     8    32 ar  
    22     8    33 1   
    23     9    33 1   
    24     9    39 1   
    25     9    40 1   
    26     9    41 1   
    27    10    11 ar  
    28    10    31 1   
    29    11    30 ar  
    30    11    42 1   
    31    12    13 ar  
    32    12    15 ar  
    33    13    18 ar  
    34    13    43 1   
    35    14    15 ar  
    36    14    19 ar  
    37    14    44 1   
    38    15    45 1   
    39    16    17 3   
    40    16    18 1   
    41    18    19 ar  
    42    19    46 1   
    43    20    21 1   
    44    20    47 1   
    45    22    23 1   
    46    22    48 1   
    47    22    49 1   
    48    23    24 1   
    49    24    50 1   
    50    24    51 1   
    51    25    26 2   
    52    25    27 1   
    53    27    54 1   
    54    28    52 1   
    55    29    53 1   
    56    35    54 1   
    57    36    54 1   
    58    37    54 1   
@<TRIPOS>SUBSTRUCTURE
     1 60W         1 TEMP              0 ****  ****    0 ROOT
