@<TRIPOS>MOLECULE
60Y
   50    54     1     0     0
SMALL
No Charge or Current Charge


@<TRIPOS>ATOM
      1 C20         -3.9960    -1.1310    -1.7590 ca         1 60Y      -0.079000
      2 C13          6.0350    -2.5460    -1.2630 ca         1 60Y      -0.011000
      3 C11          3.9860    -1.0120    -0.4370 ca         1 60Y       0.383900
      4 C17         -6.4480    -1.4520    -0.4320 ca         1 60Y      -0.016000
      5 C10          1.4670    -0.5260    -0.2720 c5         1 60Y       0.246800
      6 C12          4.7030    -2.9570    -1.4400 ca         1 60Y       0.127400
      7 C18         -6.3310    -1.8180    -1.7840 ca         1 60Y      -0.069000
      8 C15         -4.0870    -0.7540    -0.3980 ca         1 60Y      -0.015000
      9 C14          6.2600    -1.3070    -0.6400 ca         1 60Y       0.127400
     10 C16         -5.3350    -0.9250     0.2530 ca         1 60Y      -0.063000
     11 C19         -5.1050    -1.6560    -2.4430 ca         1 60Y      -0.112000
     12 N6          -8.7180    -1.7460     0.8120 n1         1 60Y      -0.449000
     13 C21         -7.7030    -1.6160     0.2500 cg         1 60Y       0.321000
     14 C1          -2.9020    -0.2030     0.2990 cc         1 60Y      -0.061000
     15 C           -2.9790     0.1720     1.6250 cd         1 60Y      -0.224000
     16 C2          -1.6030     0.0080    -0.2470 cc         1 60Y      -0.096000
     17 C3          -0.7060     0.5380     0.6470 cd         1 60Y      -0.262300
     18 S           -1.4370     0.7990     2.2350 ss         1 60Y       0.241000
     19 C4           0.7140     0.7890     0.1700 c5         1 60Y       0.307500
     20 N3           2.9100    -0.2090    -0.0040 nh         1 60Y      -0.780300
     21 N5           5.2340    -0.5360    -0.2250 nb         1 60Y      -0.227000
     22 N4           3.6740    -2.1890    -1.0260 nb         1 60Y      -0.227000
     23 C9           3.0660     1.1270     0.6380 c5         1 60Y       0.262800
     24 C8           1.6570     1.3310     1.2580 c5         1 60Y      -0.172700
     25 C7           1.4410     2.8160     1.5640 c          1 60Y       0.591000
     26 O            1.6420     3.3130     2.6640 o          1 60Y      -0.521000
     27 N2           0.9370     3.5690     0.4840 n          1 60Y      -0.382300
     28 C6           0.8870     5.0450     0.6430 c3         1 60Y       0.072300
     29 C5           0.2630     2.9380    -0.5610 c2         1 60Y       0.689800
     30 N1          -0.4880     3.5070    -1.4000 n2         1 60Y      -0.886100
     31 N            0.7940     1.7670    -0.9410 nu         1 60Y      -0.896400
     32 H1          -3.0670    -1.0220    -2.3070 ha         1 60Y       0.120000
     33 H2           1.1390    -1.3790     0.3370 h1         1 60Y       0.072200
     34 H3           1.2730    -0.7670    -1.3260 h1         1 60Y       0.072200
     35 H4           4.4560    -3.9050    -1.9140 h4         1 60Y       0.039100
     36 H5          -7.1850    -2.2260    -2.3220 ha         1 60Y       0.128000
     37 H6           7.2670    -0.9280    -0.4700 h4         1 60Y       0.039100
     38 H7          -5.4630    -0.6540     1.2950 ha         1 60Y       0.126000
     39 H8          -5.0120    -1.9390    -3.4900 ha         1 60Y       0.123000
     40 H9          -3.8160     0.1360     2.3080 h4         1 60Y       0.158000
     41 H10         -1.3520    -0.2280    -1.2760 ha         1 60Y       0.145000
     42 H11          3.8450     1.1380     1.4140 h1         1 60Y       0.072200
     43 H12          3.3120     1.8990    -0.1060 h1         1 60Y       0.072200
     44 H13          1.5970     0.7630     2.1910 hc         1 60Y       0.099700
     45 H14          0.9170     5.5360    -0.3380 h1         1 60Y       0.054700
     46 H15         -0.0350     5.3310     1.1650 h1         1 60Y       0.054700
     47 H16          1.7510     5.3970     1.2210 h1         1 60Y       0.054700
     48 H17         -0.6770     4.4560    -1.0590 hn         1 60Y       0.405400
     49 H18          0.4160     1.5000    -1.8410 hn         1 60Y       0.507000
     50 F            7.0650    -3.3170    -1.6780 f          1 60Y      -0.164000
@<TRIPOS>BOND
     1     1     8 ar  
     2     1    11 ar  
     3     1    32 1   
     4     2     6 ar  
     5     2     9 ar  
     6     2    50 1   
     7     3    20 1   
     8     3    21 ar  
     9     3    22 ar  
    10     4     7 ar  
    11     4    10 ar  
    12     4    13 1   
    13     5    19 1   
    14     5    20 1   
    15     5    33 1   
    16     5    34 1   
    17     6    22 ar  
    18     6    35 1   
    19     7    11 ar  
    20     7    36 1   
    21     8    10 ar  
    22     8    14 1   
    23     9    21 ar  
    24     9    37 1   
    25    10    38 1   
    26    11    39 1   
    27    12    13 3   
    28    14    15 2   
    29    14    16 1   
    30    15    18 1   
    31    15    40 1   
    32    16    17 2   
    33    16    41 1   
    34    17    18 1   
    35    17    19 1   
    36    19    24 1   
    37    19    31 1   
    38    20    23 1   
    39    23    24 1   
    40    23    42 1   
    41    23    43 1   
    42    24    25 1   
    43    24    44 1   
    44    25    26 2   
    45    25    27 1   
    46    27    28 1   
    47    27    29 1   
    48    28    45 1   
    49    28    46 1   
    50    28    47 1   
    51    29    30 2   
    52    29    31 1   
    53    30    48 1   
    54    31    49 1   
@<TRIPOS>SUBSTRUCTURE
     1 60Y         1 TEMP              0 ****  ****    0 ROOT
