@<TRIPOS>MOLECULE
60Y
   50    54     1     0     0
SMALL
abcg2


@<TRIPOS>ATOM
      1 C20         -4.5560     0.7630    -0.9500 ca         1 60Y      -0.079000
      2 C13          6.5670    -2.1170    -0.7110 ca         1 60Y      -0.011000
      3 C11          4.2820    -0.9240    -0.1190 ca         1 60Y       0.383900
      4 C17         -6.4780    -1.0970    -0.2890 ca         1 60Y      -0.016000
      5 C10          1.8300    -0.9490     0.0320 c5         1 60Y       0.246800
      6 C12          5.3670    -2.7900    -0.8150 ca         1 60Y       0.127400
      7 C18         -6.8110    -0.0470    -1.1440 ca         1 60Y      -0.069000
      8 C15         -4.2150    -0.2870    -0.0950 ca         1 60Y      -0.015000
      9 C14          6.5410    -0.8050    -0.2850 ca         1 60Y       0.127400
     10 C16         -5.1920    -1.2230     0.2300 ca         1 60Y      -0.063000
     11 C19         -5.8360     0.8800    -1.4690 ca         1 60Y      -0.112000
     12 N6          -8.2680    -2.8510     0.3260 n1         1 60Y      -0.449000
     13 C21         -7.4680    -2.0690     0.0520 cg         1 60Y       0.321000
     14 C1          -2.8560    -0.3950     0.4520 cc         1 60Y      -0.061000
     15 C           -2.5520    -0.9340     1.6700 cd         1 60Y      -0.224000
     16 C2          -1.6870     0.0640    -0.2270 cc         1 60Y      -0.096000
     17 C3          -0.5390    -0.1350     0.4750 cd         1 60Y      -0.262300
     18 S           -0.8750    -0.8880     1.9910 ss         1 60Y       0.241000
     19 C4           0.8610     0.2350     0.0650 c5         1 60Y       0.307500
     20 N3           3.1190    -0.3150     0.1800 nh         1 60Y      -0.780300
     21 N5           5.4020    -0.2030     0.0090 nb         1 60Y      -0.227000
     22 N4           4.2230    -2.2010    -0.5160 nb         1 60Y      -0.227000
     23 C9           3.0450     1.0510     0.6570 c5         1 60Y       0.262800
     24 C8           1.5630     1.1900     1.0290 c5         1 60Y      -0.172700
     25 C7           1.0610     2.6040     0.9420 c          1 60Y       0.591000
     26 O            1.1720     3.3660     1.8790 o          1 60Y      -0.521000
     27 N2           0.4780     2.9790    -0.2430 n          1 60Y      -0.382300
     28 C6          -0.0780     4.3180    -0.3650 c3         1 60Y       0.072300
     29 C5           0.4620     2.1710    -1.3910 c2         1 60Y       0.689800
     30 N1           0.1040     2.5570    -2.5480 n2         1 60Y      -0.886100
     31 N            0.8890     0.8850    -1.2180 nu         1 60Y      -0.896400
     32 H1          -3.8160     1.5110    -1.2050 ha         1 60Y       0.120000
     33 H2           1.6250    -1.6470     0.8500 h1         1 60Y       0.072200
     34 H3           1.7500    -1.5120    -0.8990 h1         1 60Y       0.072200
     35 H4           5.3300    -3.8250    -1.1420 h4         1 60Y       0.039100
     36 H5          -7.8110     0.0350    -1.5450 ha         1 60Y       0.128000
     37 H6           7.4550    -0.2290    -0.1800 h4         1 60Y       0.039100
     38 H7          -4.9570    -2.0610     0.8730 ha         1 60Y       0.126000
     39 H8          -6.0760     1.7050    -2.1260 ha         1 60Y       0.123000
     40 H9          -3.2290    -1.3380     2.4080 h4         1 60Y       0.158000
     41 H10         -1.7080     0.5020    -1.2150 ha         1 60Y       0.145000
     42 H11          3.6850     1.2170     1.5220 h1         1 60Y       0.072200
     43 H12          3.3450     1.7600    -0.1200 h1         1 60Y       0.072200
     44 H13          1.4200     0.8590     2.0600 hc         1 60Y       0.099700
     45 H14          0.5480     4.9540    -0.9920 h1         1 60Y       0.054700
     46 H15         -1.0780     4.2660    -0.7910 h1         1 60Y       0.054700
     47 H16         -0.1500     4.7690     0.6170 h1         1 60Y       0.054700
     48 H17         -0.1060     3.5440    -2.6010 hn         1 60Y       0.405400
     49 H18          0.7550     0.3040    -2.0330 hn         1 60Y       0.507000
     50 F            7.7260    -2.7230    -1.0100 f          1 60Y      -0.164000
@<TRIPOS>BOND
     1     1     8 ar  
     2     1    11 ar  
     3     1    32 1   
     4     2     6 ar  
     5     2     9 ar  
     6     2    50 1   
     7     3    20 1   
     8     3    21 ar  
     9     3    22 ar  
    10     4     7 ar  
    11     4    10 ar  
    12     4    13 1   
    13     5    19 1   
    14     5    20 1   
    15     5    33 1   
    16     5    34 1   
    17     6    22 ar  
    18     6    35 1   
    19     7    11 ar  
    20     7    36 1   
    21     8    10 ar  
    22     8    14 1   
    23     9    21 ar  
    24     9    37 1   
    25    10    38 1   
    26    11    39 1   
    27    12    13 3   
    28    14    15 2   
    29    14    16 1   
    30    15    18 1   
    31    15    40 1   
    32    16    17 2   
    33    16    41 1   
    34    17    18 1   
    35    17    19 1   
    36    19    24 1   
    37    19    31 1   
    38    20    23 1   
    39    23    24 1   
    40    23    42 1   
    41    23    43 1   
    42    24    25 1   
    43    24    44 1   
    44    25    26 2   
    45    25    27 1   
    46    27    28 1   
    47    27    29 1   
    48    28    45 1   
    49    28    46 1   
    50    28    47 1   
    51    29    30 2   
    52    29    31 1   
    53    30    48 1   
    54    31    49 1   
@<TRIPOS>SUBSTRUCTURE
     1 60Y         1 TEMP              0 ****  ****    0 ROOT
