@<TRIPOS>MOLECULE
60Z
   95    98     1     0     0
SMALL
abcg2


@<TRIPOS>ATOM
      1 C5         -18.7640    -9.5970     3.1200 c6         1 60Z       0.322000
      2 C8         -17.1710    -8.1590     2.0430 c6         1 60Z       0.179300
      3 C10        -18.2770    -7.3270     1.4110 c6         1 60Z      -0.104400
      4 C15        -15.8740    -7.3880     2.3160 c3         1 60Z      -0.044700
      5 C17        -14.9460    -8.1570     3.2690 c3         1 60Z       0.184300
      6 C20        -12.7880    -8.3040     4.5640 c3         1 60Z      -0.093100
      7 C21        -13.5910    -6.0130     3.8390 c3         1 60Z      -0.037200
      8 C22        -14.1970    -5.6120     5.1510 c2         1 60Z      -0.215200
      9 C24        -15.5090    -4.0760     6.6360 c3         1 60Z      -0.012000
     10 C26        -17.8800    -4.6500     6.0070 c2         1 60Z      -0.255200
     11 C2         -19.6460    -9.2710     5.6410 c          1 60Z       0.537100
     12 C3         -18.9590   -10.1140     4.5670 c          1 60Z       0.491100
     13 O4         -18.6280   -11.2420     4.8540 o          1 60Z      -0.494100
     14 O6         -18.4350   -10.6850     2.3090 oh         1 60Z      -0.655000
     15 O7         -17.6660    -8.7070     3.2890 os         1 60Z      -0.505000
     16 C11        -19.5380    -8.1700     1.2250 c6         1 60Z      -0.071400
     17 C12        -19.9710    -8.8620     2.5230 c6         1 60Z      -0.061700
     18 C14        -21.1750    -9.7720     2.3060 c3         1 60Z      -0.085100
     19 C16        -15.2010    -7.0600     0.9760 c3         1 60Z      -0.089100
     20 O18        -14.7700    -9.4790     2.7220 oh         1 60Z      -0.668000
     21 C19        -13.5670    -7.5170     3.5030 c3         1 60Z      -0.087700
     22 C23        -15.0200    -4.5800     5.3130 c2         1 60Z      -0.223200
     23 C25        -16.9960    -4.0980     6.8310 c2         1 60Z      -0.186200
     24 C27        -19.3400    -4.7150     6.3140 c3         1 60Z       0.212500
     25 O29        -19.6480    -6.1350     6.5560 os         1 60Z      -0.445100
     26 C30        -19.4440    -6.6190     7.7780 c          1 60Z       0.583100
     27 O31        -19.2500    -5.9510     8.7670 o          1 60Z      -0.486000
     28 C32        -19.5230    -8.1460     7.7820 c6         1 60Z       0.045700
     29 C34        -18.9120    -8.7700     9.0390 c6         1 60Z      -0.074400
     30 C35        -17.3840    -8.6870     9.0400 c6         1 60Z      -0.077400
     31 C36        -16.8060    -9.2840     7.7570 c6         1 60Z      -0.096400
     32 C37        -17.4280    -8.6280     6.5330 c6         1 60Z       0.100000
     33 N38        -18.8910    -8.7070     6.5880 n          1 60Z      -0.374800
     34 C39        -20.2840    -4.2520     5.2070 c3         1 60Z      -0.050700
     35 C41        -20.1570    -2.7290     5.0050 c3         1 60Z      -0.030100
     36 C42        -20.4680    -1.9170     6.2360 ca         1 60Z      -0.085300
     37 C43        -21.7730    -1.8500     6.7310 ca         1 60Z      -0.108000
     38 C44        -22.0640    -1.1260     7.8820 ca         1 60Z      -0.108000
     39 C45        -21.0510    -0.4530     8.5610 ca         1 60Z      -0.109000
     40 C46        -19.7490    -0.5090     8.0750 ca         1 60Z      -0.108000
     41 C47        -19.4630    -1.2360     6.9230 ca         1 60Z      -0.108000
     42 C48        -20.0750    -5.0100     3.8890 c3         1 60Z      -0.074400
     43 C49        -21.2740    -4.9330     2.9480 c3         1 60Z      -0.091100
     44 H1         -16.9310    -9.0020     1.3930 h1         1 60Z       0.071700
     45 H2         -17.9510    -6.9380     0.4460 hc         1 60Z       0.050200
     46 H3         -18.4840    -6.4700     2.0580 hc         1 60Z       0.050200
     47 H4         -16.1370    -6.4530     2.8200 hc         1 60Z       0.054700
     48 H5         -15.4590    -8.2420     4.2300 h1         1 60Z       0.039700
     49 H6         -11.8210    -7.8350     4.7580 hc         1 60Z       0.035033
     50 H7         -13.3370    -8.3490     5.5080 hc         1 60Z       0.035033
     51 H8         -12.5940    -9.3270     4.2400 hc         1 60Z       0.035033
     52 H9         -12.5420    -5.6930     3.8470 hc         1 60Z       0.047700
     53 H10        -14.0720    -5.4480     3.0380 hc         1 60Z       0.047700
     54 H11        -13.8730    -6.1590     6.0330 ha         1 60Z       0.167000
     55 H12        -15.0460    -4.6510     7.4470 hc         1 60Z       0.055200
     56 H13        -15.1660    -3.0430     6.7800 hc         1 60Z       0.055200
     57 H14        -17.5530    -5.1410     5.0970 ha         1 60Z       0.184000
     58 H15        -17.9950   -11.3470     2.8650 ho         1 60Z       0.470000
     59 H16        -20.3630    -7.5480     0.8690 hc         1 60Z       0.051200
     60 H17        -19.3600    -8.9300     0.4590 hc         1 60Z       0.051200
     61 H18        -20.2370    -8.0890     3.2470 hc         1 60Z       0.069700
     62 H19        -21.4750   -10.2660     3.2300 hc         1 60Z       0.045700
     63 H20        -22.0210    -9.1830     1.9480 hc         1 60Z       0.045700
     64 H21        -20.9530   -10.5370     1.5600 hc         1 60Z       0.045700
     65 H22        -14.3060    -6.4560     1.1160 hc         1 60Z       0.039700
     66 H23        -14.9110    -7.9760     0.4570 hc         1 60Z       0.039700
     67 H24        -15.8710    -6.5010     0.3240 hc         1 60Z       0.039700
     68 H25        -14.4750   -10.0640     3.4280 ho         1 60Z       0.439000
     69 H26        -13.0210    -7.6090     2.5600 hc         1 60Z       0.060700
     70 H27        -15.3500    -4.0250     4.4370 ha         1 60Z       0.168000
     71 H28        -17.3550    -3.6290     7.7430 ha         1 60Z       0.181000
     72 H29        -19.5560    -4.1720     7.2310 h1         1 60Z       0.079700
     73 H30        -20.5850    -8.3910     7.7220 h1         1 60Z       0.109700
     74 H31        -19.3300    -8.2740     9.9140 hc         1 60Z       0.064200
     75 H32        -19.2240    -9.8160     9.0700 hc         1 60Z       0.064200
     76 H33        -16.9900    -9.2090     9.9140 hc         1 60Z       0.052200
     77 H34        -17.0740    -7.6410     9.1260 hc         1 60Z       0.052200
     78 H35        -17.0020   -10.3600     7.7230 hc         1 60Z       0.053200
     79 H36        -15.7230    -9.1430     7.7170 hc         1 60Z       0.053200
     80 H37        -17.0830    -9.0840     5.6100 h1         1 60Z       0.062700
     81 H38        -17.1510    -7.5700     6.4840 h1         1 60Z       0.062700
     82 H39        -21.2970    -4.4630     5.5670 hc         1 60Z       0.064700
     83 H40        -19.1440    -2.5030     4.6640 hc         1 60Z       0.052700
     84 H41        -20.8350    -2.4380     4.2010 hc         1 60Z       0.052700
     85 H42        -22.5680    -2.3700     6.2090 ha         1 60Z       0.111000
     86 H43        -23.0830    -1.0840     8.2480 ha         1 60Z       0.112500
     87 H44        -21.2760     0.1110     9.4570 ha         1 60Z       0.113000
     88 H45        -18.9530     0.0120     8.5940 ha         1 60Z       0.112500
     89 H46        -18.4460    -1.2810     6.5540 ha         1 60Z       0.111000
     90 H47        -19.8700    -6.0570     4.1130 hc         1 60Z       0.047700
     91 H48        -19.1850    -4.6210     3.3870 hc         1 60Z       0.047700
     92 H49        -21.0810    -5.4890     2.0290 hc         1 60Z       0.033367
     93 H50        -22.1620    -5.3620     3.4190 hc         1 60Z       0.033367
     94 H51        -21.5080    -3.9040     2.6690 hc         1 60Z       0.033367
     95 O1         -20.8770    -9.2810     5.6140 o          1 60Z      -0.593100
@<TRIPOS>BOND
     1     1    12 1   
     2     1    14 1   
     3     1    15 1   
     4     1    17 1   
     5     2     3 1   
     6     2     4 1   
     7     2    15 1   
     8     2    44 1   
     9     3    16 1   
    10     3    45 1   
    11     3    46 1   
    12     4     5 1   
    13     4    19 1   
    14     4    47 1   
    15     5    20 1   
    16     5    21 1   
    17     5    48 1   
    18     6    21 1   
    19     6    49 1   
    20     6    50 1   
    21     6    51 1   
    22     7     8 1   
    23     7    21 1   
    24     7    52 1   
    25     7    53 1   
    26     8    22 2   
    27     8    54 1   
    28     9    22 1   
    29     9    23 1   
    30     9    55 1   
    31     9    56 1   
    32    10    23 2   
    33    10    24 1   
    34    10    57 1   
    35    11    12 1   
    36    11    33 1   
    37    11    95 2   
    38    12    13 2   
    39    14    58 1   
    40    16    17 1   
    41    16    59 1   
    42    16    60 1   
    43    17    18 1   
    44    17    61 1   
    45    18    62 1   
    46    18    63 1   
    47    18    64 1   
    48    19    65 1   
    49    19    66 1   
    50    19    67 1   
    51    20    68 1   
    52    21    69 1   
    53    22    70 1   
    54    23    71 1   
    55    24    25 1   
    56    24    34 1   
    57    24    72 1   
    58    25    26 1   
    59    26    27 2   
    60    26    28 1   
    61    28    29 1   
    62    28    33 1   
    63    28    73 1   
    64    29    30 1   
    65    29    74 1   
    66    29    75 1   
    67    30    31 1   
    68    30    76 1   
    69    30    77 1   
    70    31    32 1   
    71    31    78 1   
    72    31    79 1   
    73    32    33 1   
    74    32    80 1   
    75    32    81 1   
    76    34    35 1   
    77    34    42 1   
    78    34    82 1   
    79    35    36 1   
    80    35    83 1   
    81    35    84 1   
    82    36    37 ar  
    83    36    41 ar  
    84    37    38 ar  
    85    37    85 1   
    86    38    39 ar  
    87    38    86 1   
    88    39    40 ar  
    89    39    87 1   
    90    40    41 ar  
    91    40    88 1   
    92    41    89 1   
    93    42    43 1   
    94    42    90 1   
    95    42    91 1   
    96    43    92 1   
    97    43    93 1   
    98    43    94 1   
@<TRIPOS>SUBSTRUCTURE
     1 60Z         1 TEMP              0 ****  ****    0 ROOT
