@<TRIPOS>MOLECULE
60Z
   95    98     1     0     0
SMALL
No Charge or Current Charge


@<TRIPOS>ATOM
      1 C5         -18.8450    -9.8190     3.0340 c6         1 60Z       0.322000
      2 C8         -17.2460    -8.2860     1.9390 c6         1 60Z       0.179300
      3 C10        -18.3910    -7.4180     1.3500 c6         1 60Z      -0.104400
      4 C15        -15.9310    -7.4710     2.2370 c3         1 60Z      -0.044700
      5 C17        -14.9350    -8.2200     3.1940 c3         1 60Z       0.184300
      6 C20        -12.7010    -8.3160     4.5020 c3         1 60Z      -0.093100
      7 C21        -13.6480    -6.0050     3.8970 c3         1 60Z      -0.037200
      8 C22        -14.2010    -5.6870     5.2750 c2         1 60Z      -0.215200
      9 C24        -15.3150    -4.1360     6.9590 c3         1 60Z      -0.012000
     10 C26        -17.7800    -4.2800     6.3120 c2         1 60Z      -0.255200
     11 C2         -19.8520    -9.6370     5.5430 c          1 60Z       0.537100
     12 C3         -19.0980   -10.4940     4.4390 c          1 60Z       0.491100
     13 O4         -18.5960   -11.5840     4.7360 o          1 60Z      -0.494100
     14 O6         -18.4580   -10.8340     2.0920 oh         1 60Z      -0.655000
     15 O7         -17.7110    -8.9220     3.1600 os         1 60Z      -0.505000
     16 C11        -19.6770    -8.2560     1.1680 c6         1 60Z      -0.071400
     17 C12        -20.0650    -9.0010     2.4780 c6         1 60Z      -0.061700
     18 C14        -21.3330    -9.8750     2.2360 c3         1 60Z      -0.085100
     19 C16        -15.2560    -7.0240     0.9050 c3         1 60Z      -0.089100
     20 O18        -14.6540    -9.5190     2.6450 oh         1 60Z      -0.668000
     21 C19        -13.5660    -7.5110     3.4920 c3         1 60Z      -0.087700
     22 C23        -14.9210    -4.5900     5.5650 c2         1 60Z      -0.223200
     23 C25        -16.7980    -4.2800     7.2290 c2         1 60Z      -0.186200
     24 C27        -19.2200    -4.6590     6.5960 c3         1 60Z       0.212500
     25 O29        -19.1220    -6.0710     6.8660 os         1 60Z      -0.445100
     26 C30        -20.1760    -6.8270     7.3090 c          1 60Z       0.583100
     27 O31        -21.3480    -6.5400     7.1120 o          1 60Z      -0.486000
     28 C32        -19.7410    -8.2690     7.6930 c6         1 60Z       0.045700
     29 C34        -18.8730    -8.2750     8.9900 c6         1 60Z      -0.074400
     30 C35        -17.3900    -7.9200     8.7620 c6         1 60Z      -0.077400
     31 C36        -16.7950    -8.8610     7.7060 c6         1 60Z      -0.096400
     32 C37        -17.6020    -8.8190     6.3930 c6         1 60Z       0.100000
     33 N38        -19.0780    -9.0310     6.5680 n          1 60Z      -0.374800
     34 C39        -20.2030    -4.3100     5.4220 c3         1 60Z      -0.050700
     35 C41        -20.1830    -2.7850     5.0980 c3         1 60Z      -0.030100
     36 C42        -20.3870    -1.9060     6.3280 ca         1 60Z      -0.085300
     37 C43        -21.6560    -1.8180     6.9320 ca         1 60Z      -0.108000
     38 C44        -21.8450    -1.0200     8.0740 ca         1 60Z      -0.108000
     39 C45        -20.7650    -0.3050     8.6180 ca         1 60Z      -0.109000
     40 C46        -19.4960    -0.3890     8.0200 ca         1 60Z      -0.108000
     41 C47        -19.3080    -1.1860     6.8780 ca         1 60Z      -0.108000
     42 C48        -19.9930    -5.1870     4.1510 c3         1 60Z      -0.074400
     43 C49        -21.1040    -5.0430     3.0880 c3         1 60Z      -0.091100
     44 H1         -16.9800    -9.0660     1.2110 h1         1 60Z       0.071700
     45 H2         -18.1020    -6.9990     0.3790 hc         1 60Z       0.050200
     46 H3         -18.5880    -6.5680     2.0130 hc         1 60Z       0.050200
     47 H4         -16.2320    -6.5580     2.7650 hc         1 60Z       0.054700
     48 H5         -15.4460    -8.3390     4.1600 h1         1 60Z       0.039700
     49 H6         -11.7850    -7.7670     4.7530 hc         1 60Z       0.035033
     50 H7         -13.2500    -8.5090     5.4300 hc         1 60Z       0.035033
     51 H8         -12.3950    -9.2820     4.0820 hc         1 60Z       0.035033
     52 H9         -12.6270    -5.6050     3.8500 hc         1 60Z       0.047700
     53 H10        -14.1970    -5.4380     3.1370 hc         1 60Z       0.047700
     54 H11        -13.8960    -6.3660     6.0710 ha         1 60Z       0.167000
     55 H12        -14.7610    -4.7240     7.7020 hc         1 60Z       0.055200
     56 H13        -15.0090    -3.0940     7.1160 hc         1 60Z       0.055200
     57 H14        -17.5510    -4.1150     5.2620 ha         1 60Z       0.184000
     58 H15        -17.6260   -11.2070     2.4540 ho         1 60Z       0.470000
     59 H16        -20.5000    -7.6090     0.8380 hc         1 60Z       0.051200
     60 H17        -19.5210    -8.9830     0.3580 hc         1 60Z       0.051200
     61 H18        -20.3490    -8.2450     3.2220 hc         1 60Z       0.069700
     62 H19        -21.6410   -10.4190     3.1350 hc         1 60Z       0.045700
     63 H20        -22.1830    -9.2550     1.9250 hc         1 60Z       0.045700
     64 H21        -21.1640   -10.6180     1.4470 hc         1 60Z       0.045700
     65 H22        -14.3660    -6.4110     1.0750 hc         1 60Z       0.039700
     66 H23        -14.9560    -7.8950     0.3100 hc         1 60Z       0.039700
     67 H24        -15.9360    -6.4180     0.2970 hc         1 60Z       0.039700
     68 H25        -14.0880    -9.9820     3.2970 ho         1 60Z       0.439000
     69 H26        -12.9990    -7.5260     2.5530 hc         1 60Z       0.060700
     70 H27        -15.1840    -3.8830     4.7770 ha         1 60Z       0.168000
     71 H28        -17.0330    -4.4880     8.2750 ha         1 60Z       0.181000
     72 H29        -19.5530    -4.1320     7.5020 h1         1 60Z       0.079700
     73 H30        -20.6850    -8.7740     7.9420 h1         1 60Z       0.109700
     74 H31        -19.3090    -7.5940     9.7340 hc         1 60Z       0.064200
     75 H32        -18.9260    -9.2770     9.4380 hc         1 60Z       0.064200
     76 H33        -16.8330    -8.0150     9.7040 hc         1 60Z       0.052200
     77 H34        -17.2810    -6.8760     8.4440 hc         1 60Z       0.052200
     78 H35        -16.7840    -9.8900     8.0930 hc         1 60Z       0.053200
     79 H36        -15.7490    -8.5900     7.5070 hc         1 60Z       0.053200
     80 H37        -17.1710    -9.5730     5.7220 h1         1 60Z       0.062700
     81 H38        -17.4460    -7.8440     5.9100 h1         1 60Z       0.062700
     82 H39        -21.2180    -4.5070     5.7790 hc         1 60Z       0.064700
     83 H40        -19.2420    -2.5280     4.5970 hc         1 60Z       0.052700
     84 H41        -20.9740    -2.5550     4.3750 hc         1 60Z       0.052700
     85 H42        -22.4980    -2.3700     6.5180 ha         1 60Z       0.111000
     86 H43        -22.8270    -0.9560     8.5370 ha         1 60Z       0.112500
     87 H44        -20.9100     0.3120     9.5020 ha         1 60Z       0.113000
     88 H45        -18.6590     0.1630     8.4410 ha         1 60Z       0.112500
     89 H46        -18.3210    -1.2490     6.4250 ha         1 60Z       0.111000
     90 H47        -19.9430    -6.2420     4.4420 hc         1 60Z       0.047700
     91 H48        -19.0280    -4.9460     3.6910 hc         1 60Z       0.047700
     92 H49        -20.9600    -5.7700     2.2830 hc         1 60Z       0.033367
     93 H50        -22.0910    -5.2210     3.5310 hc         1 60Z       0.033367
     94 H51        -21.0980    -4.0450     2.6360 hc         1 60Z       0.033367
     95 O1         -21.0790    -9.5650     5.5660 o          1 60Z      -0.593100
@<TRIPOS>BOND
     1     1    12 1   
     2     1    14 1   
     3     1    15 1   
     4     1    17 1   
     5     2     3 1   
     6     2     4 1   
     7     2    15 1   
     8     2    44 1   
     9     3    16 1   
    10     3    45 1   
    11     3    46 1   
    12     4     5 1   
    13     4    19 1   
    14     4    47 1   
    15     5    20 1   
    16     5    21 1   
    17     5    48 1   
    18     6    21 1   
    19     6    49 1   
    20     6    50 1   
    21     6    51 1   
    22     7     8 1   
    23     7    21 1   
    24     7    52 1   
    25     7    53 1   
    26     8    22 2   
    27     8    54 1   
    28     9    22 1   
    29     9    23 1   
    30     9    55 1   
    31     9    56 1   
    32    10    23 2   
    33    10    24 1   
    34    10    57 1   
    35    11    12 1   
    36    11    33 1   
    37    11    95 2   
    38    12    13 2   
    39    14    58 1   
    40    16    17 1   
    41    16    59 1   
    42    16    60 1   
    43    17    18 1   
    44    17    61 1   
    45    18    62 1   
    46    18    63 1   
    47    18    64 1   
    48    19    65 1   
    49    19    66 1   
    50    19    67 1   
    51    20    68 1   
    52    21    69 1   
    53    22    70 1   
    54    23    71 1   
    55    24    25 1   
    56    24    34 1   
    57    24    72 1   
    58    25    26 1   
    59    26    27 2   
    60    26    28 1   
    61    28    29 1   
    62    28    33 1   
    63    28    73 1   
    64    29    30 1   
    65    29    74 1   
    66    29    75 1   
    67    30    31 1   
    68    30    76 1   
    69    30    77 1   
    70    31    32 1   
    71    31    78 1   
    72    31    79 1   
    73    32    33 1   
    74    32    80 1   
    75    32    81 1   
    76    34    35 1   
    77    34    42 1   
    78    34    82 1   
    79    35    36 1   
    80    35    83 1   
    81    35    84 1   
    82    36    37 ar  
    83    36    41 ar  
    84    37    38 ar  
    85    37    85 1   
    86    38    39 ar  
    87    38    86 1   
    88    39    40 ar  
    89    39    87 1   
    90    40    41 ar  
    91    40    88 1   
    92    41    89 1   
    93    42    43 1   
    94    42    90 1   
    95    42    91 1   
    96    43    92 1   
    97    43    93 1   
    98    43    94 1   
@<TRIPOS>SUBSTRUCTURE
     1 60Z         1 TEMP              0 ****  ****    0 ROOT
