@<TRIPOS>MOLECULE
610
   51    54     1     0     0
SMALL
No Charge or Current Charge


@<TRIPOS>ATOM
      1 C1          -3.5210     2.9440     1.3850 c5         1 610       0.093300
      2 C2          -4.4220     1.7930     0.8350 c5         1 610       0.102300
      3 C3          -3.5020     1.1790    -0.2730 c5         1 610       0.323300
      4 O4          -2.8890     2.3340    -0.8810 os         1 610      -0.437000
      5 C5          -2.6160     3.3140     0.1470 c5         1 610       0.194500
      6 C6          -1.1340     3.2080     0.5130 c2         1 610      -0.221200
      7 N7          -2.4630     0.2140     0.1210 na         1 610      -0.318300
      8 O8          -4.3450     4.0380     1.8430 oh         1 610      -0.706000
      9 O9          -5.6280     2.3720     0.3180 oh         1 610      -0.700000
     10 C10         -0.2040     3.2370    -0.4590 c2         1 610      -0.235200
     11 C11         -2.1040    -0.1460     1.4260 cc         1 610       0.430700
     12 N12         -1.2160    -1.1580     1.4340 nd         1 610      -0.559100
     13 C13          1.2880     3.1800    -0.2420 c3         1 610       0.130200
     14 N14          1.6980     1.8000     0.0080 ns         1 610      -0.481900
     15 C15          2.1400     0.9290    -0.9590 c          1 610       0.632700
     16 C16          2.5590    -0.4530    -0.5110 ca         1 610      -0.278600
     17 C17          3.0630    -1.3850    -1.4500 ca         1 610       0.242100
     18 C18          3.4600    -2.6830    -1.0400 ca         1 610       0.080100
     19 C19          3.3550    -3.0530     0.3110 ca         1 610      -0.101000
     20 C20          2.8530    -2.1390     1.2650 ca         1 610      -0.185200
     21 C21          2.4590    -0.8470     0.8480 ca         1 610       0.005000
     22 N22          2.7320    -2.5370     2.7090 no         1 610       0.712200
     23 O23          3.1690    -1.0330    -2.7670 oh         1 610      -0.511100
     24 O24          3.9510    -3.5910    -1.9490 oh         1 610      -0.504100
     25 O25          2.2050     1.2650    -2.1350 o          1 610      -0.636100
     26 O26          2.9940    -3.7070     3.0170 o          1 610      -0.407000
     27 O27          2.3920    -1.6740     3.5300 o          1 610      -0.407000
     28 C28         -1.7520    -0.5890    -0.7270 ca         1 610       0.091500
     29 C29         -1.0180    -1.4200     0.0830 ca         1 610      -0.023600
     30 C30         -0.2050    -2.4040    -0.5120 ca         1 610       0.178900
     31 N31         -0.1420    -2.5100    -1.8590 nb         1 610      -0.193000
     32 C32         -0.8940    -1.6340    -2.5710 ca         1 610       0.132900
     33 N33         -1.7090    -0.6730    -2.0720 nb         1 610      -0.175000
     34 H1          -2.9070     2.5660     2.2160 h1         1 610       0.059700
     35 H2          -4.6590     1.0560     1.6160 h1         1 610       0.082700
     36 H3          -4.1170     0.6500    -1.0120 h2         1 610       0.130700
     37 H5          -2.8580     4.3110    -0.2490 h1         1 610       0.095700
     38 H6          -0.8220     3.1420     1.5570 ha         1 610       0.185000
     39 HO8         -3.7680     4.6500     2.3640 ho         1 610       0.522000
     40 HO9         -5.6110     3.2700     0.7470 ho         1 610       0.527000
     41 H10         -0.4940     3.3110    -1.5100 ha         1 610       0.199000
     42 H11         -2.5270     0.3270     2.3050 h5         1 610       0.069800
     43 H13          1.8180     3.5760    -1.1200 h1         1 610       0.074700
     44 H13A         1.5690     3.7970     0.6230 h1         1 610       0.074700
     45 HN14         1.6590     1.4570     0.9570 hn         1 610       0.320500
     46 H19          3.6630    -4.0510     0.6170 ha         1 610       0.153000
     47 H21          2.0650    -0.1590     1.5930 ha         1 610       0.141000
     48 HO23         2.8300    -0.0990    -2.8160 ho         1 610       0.528000
     49 HO24         4.1810    -4.4240    -1.4840 ho         1 610       0.470000
     50 H30          0.3870    -3.1010     0.0780 h4         1 610       0.047100
     51 H32         -0.8440    -1.7170    -3.6550 h5         1 610       0.054100
@<TRIPOS>BOND
     1     1     2 1   
     2     1     5 1   
     3     1     8 1   
     4     1    34 1   
     5     2     3 1   
     6     2     9 1   
     7     2    35 1   
     8     3     4 1   
     9     3     7 1   
    10     3    36 1   
    11     4     5 1   
    12     5     6 1   
    13     5    37 1   
    14     6    10 2   
    15     6    38 1   
    16     7    11 1   
    17     7    28 1   
    18     8    39 1   
    19     9    40 1   
    20    10    13 1   
    21    10    41 1   
    22    11    12 2   
    23    11    42 1   
    24    12    29 1   
    25    13    14 1   
    26    13    43 1   
    27    13    44 1   
    28    14    15 1   
    29    14    45 1   
    30    15    16 1   
    31    15    25 2   
    32    16    17 ar  
    33    16    21 ar  
    34    17    18 ar  
    35    17    23 1   
    36    18    19 ar  
    37    18    24 1   
    38    19    20 ar  
    39    19    46 1   
    40    20    21 ar  
    41    20    22 1   
    42    21    47 1   
    43    22    26 1   
    44    22    27 1   
    45    23    48 1   
    46    24    49 1   
    47    28    29 ar  
    48    28    33 ar  
    49    29    30 ar  
    50    30    31 ar  
    51    30    50 1   
    52    31    32 ar  
    53    32    33 ar  
    54    32    51 1   
@<TRIPOS>SUBSTRUCTURE
     1 610         1 TEMP              0 ****  ****    0 ROOT
