@<TRIPOS>MOLECULE
610
   51    54     1     0     0
SMALL
abcg2


@<TRIPOS>ATOM
      1 C1          -3.0170     2.4830     1.1150 c5         1 610       0.093300
      2 C2          -4.0160     1.5730     0.3940 c5         1 610       0.102300
      3 C3          -3.1830     1.1410    -0.8100 c5         1 610       0.323300
      4 O4          -2.3450     2.2100    -1.1200 os         1 610      -0.437000
      5 C5          -2.3150     3.1670    -0.0650 c5         1 610       0.194500
      6 C6          -0.9230     3.5910     0.2650 c2         1 610      -0.221200
      7 N7          -2.3770    -0.0410    -0.4940 na         1 610      -0.318300
      8 O8          -3.6070     3.4460     1.9380 oh         1 610      -0.706000
      9 O9          -5.1080     2.3030    -0.0890 oh         1 610      -0.700000
     10 C10          0.1620     3.3220    -0.4510 c2         1 610      -0.235200
     11 C11         -1.0370    -0.1260    -0.2310 cc         1 610       0.430700
     12 N12         -0.6200    -1.3310     0.0220 nd         1 610      -0.559100
     13 C13          1.5570     3.6280     0.0070 c3         1 610       0.130200
     14 N14          2.2170     2.3710     0.3290 ns         1 610      -0.481900
     15 C15          2.9360     1.6640    -0.5470 c          1 610       0.632700
     16 C16          3.1970     0.2330    -0.2430 ca         1 610      -0.278600
     17 C17          4.1290    -0.4500    -1.0410 ca         1 610       0.242100
     18 C18          4.3640    -1.8250    -0.8180 ca         1 610       0.080100
     19 C19          3.6300    -2.5050     0.1250 ca         1 610      -0.101000
     20 C20          2.6850    -1.8130     0.8830 ca         1 610      -0.185200
     21 C21          2.4720    -0.4650     0.7200 ca         1 610       0.005000
     22 N22          1.8790    -2.5380     1.8370 no         1 610       0.712200
     23 O23          4.8120     0.1260    -2.0140 oh         1 610      -0.511100
     24 O24          5.3010    -2.3910    -1.5930 oh         1 610      -0.504100
     25 O25          3.3670     2.1590    -1.5960 o          1 610      -0.636100
     26 O26          1.8840    -3.7480     1.7800 o          1 610      -0.407000
     27 O27          1.2390    -1.9070     2.6460 o          1 610      -0.407000
     28 C28         -2.8520    -1.3150    -0.4060 ca         1 610       0.091500
     29 C29         -1.7440    -2.1070    -0.0780 ca         1 610      -0.023600
     30 C30         -1.9960    -3.4600     0.0720 ca         1 610       0.178900
     31 N31         -3.2290    -3.9210    -0.1020 nb         1 610      -0.193000
     32 C32         -4.1970    -3.0600    -0.4180 ca         1 610       0.132900
     33 N33         -4.0850    -1.7500    -0.5820 nb         1 610      -0.175000
     34 H1          -2.3000     1.8630     1.6700 h1         1 610       0.059700
     35 H2          -4.3320     0.7200     1.0070 h1         1 610       0.082700
     36 H3          -3.8050     0.8850    -1.6710 h2         1 610       0.130700
     37 H5          -2.9020     4.0460    -0.3600 h1         1 610       0.095700
     38 H6          -0.8360     4.1550     1.1900 ha         1 610       0.185000
     39 HO8         -3.7740     3.0590     2.8040 ho         1 610       0.522000
     40 HO9         -5.3470     2.9550     0.5810 ho         1 610       0.527000
     41 H10          0.0880     2.7800    -1.3890 ha         1 610       0.199000
     42 H11         -0.4040     0.7480    -0.2430 h5         1 610       0.069800
     43 H13          2.1320     4.1440    -0.7590 h1         1 610       0.074700
     44 H13A         1.5560     4.2530     0.8990 h1         1 610       0.074700
     45 HN14         1.9380     1.9440     1.1960 hn         1 610       0.320500
     46 H19          3.7900    -3.5660     0.2700 ha         1 610       0.153000
     47 H21          1.7090     0.0170     1.3120 ha         1 610       0.141000
     48 HO23         4.4410     1.0410    -2.1170 ho         1 610       0.528000
     49 HO24         5.3910    -3.3290    -1.3880 ho         1 610       0.470000
     50 H30         -1.2180    -4.1700     0.3310 h4         1 610       0.047100
     51 H32         -5.1870    -3.4790    -0.5530 h5         1 610       0.054100
@<TRIPOS>BOND
     1     1     2 1   
     2     1     5 1   
     3     1     8 1   
     4     1    34 1   
     5     2     3 1   
     6     2     9 1   
     7     2    35 1   
     8     3     4 1   
     9     3     7 1   
    10     3    36 1   
    11     4     5 1   
    12     5     6 1   
    13     5    37 1   
    14     6    10 2   
    15     6    38 1   
    16     7    11 1   
    17     7    28 1   
    18     8    39 1   
    19     9    40 1   
    20    10    13 1   
    21    10    41 1   
    22    11    12 2   
    23    11    42 1   
    24    12    29 1   
    25    13    14 1   
    26    13    43 1   
    27    13    44 1   
    28    14    15 1   
    29    14    45 1   
    30    15    16 1   
    31    15    25 2   
    32    16    17 ar  
    33    16    21 ar  
    34    17    18 ar  
    35    17    23 1   
    36    18    19 ar  
    37    18    24 1   
    38    19    20 ar  
    39    19    46 1   
    40    20    21 ar  
    41    20    22 1   
    42    21    47 1   
    43    22    26 1   
    44    22    27 1   
    45    23    48 1   
    46    24    49 1   
    47    28    29 ar  
    48    28    33 ar  
    49    29    30 ar  
    50    30    31 ar  
    51    30    50 1   
    52    31    32 ar  
    53    32    33 ar  
    54    32    51 1   
@<TRIPOS>SUBSTRUCTURE
     1 610         1 TEMP              0 ****  ****    0 ROOT
