@<TRIPOS>MOLECULE
611
   50    52     1     0     0
SMALL
abcg2


@<TRIPOS>ATOM
      1 C1          -3.7820     2.8030     1.5730 c5         1 611       0.155300
      2 C2          -3.0470     1.5340     2.0000 c5         1 611       0.116300
      3 C3          -3.0150     0.7330     0.6780 c5         1 611       0.276300
      4 O4          -3.2330     1.6430    -0.3620 os         1 611      -0.414000
      5 C5          -3.2310     2.9680     0.1620 c5         1 611       0.193500
      6 C6          -1.8460     3.5570     0.1730 c2         1 611      -0.267200
      7 S7          -1.4090    -0.1310     0.6050 ss         1 611      -0.235000
      8 O8          -5.1660     2.6020     1.4820 oh         1 611      -0.705000
      9 O9          -3.7080     0.8880     3.0430 oh         1 611      -0.707000
     10 C10         -0.8590     3.1160    -0.5960 c2         1 611      -0.210200
     11 C11         -1.6640    -1.4170    -0.5580 ca         1 611      -0.044000
     12 C12          0.5660     3.5650    -0.5120 c3         1 611       0.125200
     13 N13          1.4050     2.4070    -0.2540 ns         1 611      -0.487900
     14 C14          1.8660     1.6270    -1.2490 c          1 611       0.621700
     15 C15          2.4810     0.3400    -0.7950 ca         1 611      -0.190600
     16 C16          2.1540    -0.8490    -1.4480 ca         1 611       0.223100
     17 C17          2.7550    -2.0540    -1.0360 ca         1 611       0.019100
     18 C18          3.6620    -2.0650    -0.0010 ca         1 611      -0.088000
     19 C19          3.9750    -0.8660     0.6330 ca         1 611      -0.201200
     20 C20          3.3940     0.3290     0.2520 ca         1 611      -0.009000
     21 N21          4.9340    -0.8760     1.7140 no         1 611       0.701200
     22 O22          1.2630    -0.8390    -2.4340 oh         1 611      -0.484100
     23 O23          2.3740    -3.1460    -1.7230 oh         1 611      -0.552100
     24 O24          1.8140     1.9310    -2.4290 o          1 611      -0.562100
     25 O25          5.4150    -1.9380     2.0400 o          1 611      -0.402000
     26 O26          5.2090     0.1760     2.2460 o          1 611      -0.402000
     27 C27         -0.8250    -2.5280    -0.4870 ca         1 611      -0.160000
     28 C28         -0.9810    -3.5410    -1.4170 ca         1 611       0.340900
     29 N29         -1.8970    -3.5260    -2.3800 nb         1 611      -0.663000
     30 C30         -2.6940    -2.4660    -2.4370 ca         1 611       0.340900
     31 C31         -2.6200    -1.3880    -1.5680 ca         1 611      -0.160000
     32 H1          -3.5290     3.6530     2.2180 h1         1 611       0.062700
     33 H2          -2.0260     1.8190     2.2880 h1         1 611       0.058700
     34 H3          -3.7950    -0.0340     0.6630 h2         1 611       0.101700
     35 H5          -3.9040     3.5740    -0.4520 h1         1 611       0.110700
     36 H6          -1.6750     4.3700     0.8740 ha         1 611       0.176000
     37 HO8         -5.4880     2.2880     2.3340 ho         1 611       0.528000
     38 HO9         -3.1350     0.2070     3.4090 ho         1 611       0.526000
     39 H10         -1.0440     2.3090    -1.2980 ha         1 611       0.203000
     40 H12          0.8970     4.0280    -1.4420 h1         1 611       0.070700
     41 H12A         0.7100     4.2920     0.2880 h1         1 611       0.070700
     42 HN13         1.3140     1.9930     0.6620 hn         1 611       0.310500
     43 H18          4.1200    -2.9960     0.3050 ha         1 611       0.153000
     44 H20          3.6550     1.2540     0.7470 ha         1 611       0.160000
     45 HO22         1.0950    -1.7360    -2.7520 ho         1 611       0.498000
     46 HO23         2.7800    -3.9480    -1.3750 ho         1 611       0.487000
     47 H27         -0.0720    -2.6150     0.2850 ha         1 611       0.136000
     48 H28         -0.3360    -4.4110    -1.3720 h4         1 611       0.021100
     49 H30         -3.4370    -2.4590    -3.2270 h4         1 611       0.021100
     50 H31         -3.2910    -0.5520    -1.7060 ha         1 611       0.136000
@<TRIPOS>BOND
     1     1     2 1   
     2     1     5 1   
     3     1     8 1   
     4     1    32 1   
     5     2     3 1   
     6     2     9 1   
     7     2    33 1   
     8     3     4 1   
     9     3     7 1   
    10     3    34 1   
    11     4     5 1   
    12     5     6 1   
    13     5    35 1   
    14     6    10 2   
    15     6    36 1   
    16     7    11 1   
    17     8    37 1   
    18     9    38 1   
    19    10    12 1   
    20    10    39 1   
    21    11    27 ar  
    22    11    31 ar  
    23    12    13 1   
    24    12    40 1   
    25    12    41 1   
    26    13    14 1   
    27    13    42 1   
    28    14    15 1   
    29    14    24 2   
    30    15    16 ar  
    31    15    20 ar  
    32    16    17 ar  
    33    16    22 1   
    34    17    18 ar  
    35    17    23 1   
    36    18    19 ar  
    37    18    43 1   
    38    19    20 ar  
    39    19    21 1   
    40    20    44 1   
    41    21    25 1   
    42    21    26 1   
    43    22    45 1   
    44    23    46 1   
    45    27    28 ar  
    46    27    47 1   
    47    28    29 ar  
    48    28    48 1   
    49    29    30 ar  
    50    30    31 ar  
    51    30    49 1   
    52    31    50 1   
@<TRIPOS>SUBSTRUCTURE
     1 611         1 TEMP              0 ****  ****    0 ROOT
