@<TRIPOS>MOLECULE
611
   50    52     1     0     0
SMALL
No Charge or Current Charge


@<TRIPOS>ATOM
      1 C1          -3.7910     2.9100     1.7820 c5         1 611       0.155300
      2 C2          -3.0590     1.7780     2.5780 c5         1 611       0.116300
      3 C3          -2.7130     0.7100     1.4690 c5         1 611       0.276300
      4 O4          -3.1640     1.2580     0.2060 os         1 611      -0.414000
      5 C5          -3.2560     2.6920     0.3310 c5         1 611       0.193500
      6 C6          -1.8440     3.2520     0.1560 c2         1 611      -0.267200
      7 S7          -0.8550     0.4780     1.4760 ss         1 611      -0.235000
      8 O8          -5.2030     2.6990     1.8900 oh         1 611      -0.705000
      9 O9          -3.9210     1.2730     3.6270 oh         1 611      -0.707000
     10 C10         -1.2700     3.1920    -1.0590 c2         1 611      -0.210200
     11 C11         -0.8820    -0.9090     0.3490 ca         1 611      -0.044000
     12 C12          0.1870     3.4520    -1.3420 c3         1 611       0.125200
     13 N13          0.9000     2.2060    -1.0790 ns         1 611      -0.487900
     14 C14          1.7360     1.5620    -1.9660 c          1 611       0.621700
     15 C15          2.2110     0.1990    -1.5210 ca         1 611      -0.190600
     16 C16          2.5150    -0.8160    -2.4560 ca         1 611       0.223100
     17 C17          2.9300    -2.0930    -2.0250 ca         1 611       0.019100
     18 C18          3.0430    -2.3750    -0.6550 ca         1 611      -0.088000
     19 C19          2.7500    -1.3750     0.3000 ca         1 611      -0.201200
     20 C20          2.3420    -0.0940    -0.1420 ca         1 611      -0.009000
     21 N21          2.8630    -1.6680     1.7660 no         1 611       0.701200
     22 O22          2.3810    -0.6290    -3.7990 oh         1 611      -0.484100
     23 O23          3.2110    -3.0650    -2.9570 oh         1 611      -0.552100
     24 O24          2.0830     2.0920    -3.0120 o          1 611      -0.562100
     25 O25          3.1070    -2.8310     2.1130 o          1 611      -0.402000
     26 O26          2.6960    -0.7380     2.5650 o          1 611      -0.402000
     27 C27         -0.6010    -2.2030     0.8110 ca         1 611      -0.160000
     28 C28         -0.5790    -3.2690    -0.1050 ca         1 611       0.340900
     29 N29         -0.8140    -3.1090    -1.4280 nb         1 611      -0.663000
     30 C30         -1.0720    -1.8570    -1.8730 ca         1 611       0.340900
     31 C31         -1.1130    -0.7370    -1.0250 ca         1 611      -0.160000
     32 H1          -3.5240     3.9060     2.1620 h1         1 611       0.062700
     33 H2          -2.1360     2.1850     3.0160 h1         1 611       0.058700
     34 H3          -3.2020    -0.2520     1.6660 h2         1 611       0.101700
     35 H5          -3.9490     3.0890    -0.4240 h1         1 611       0.110700
     36 H6          -1.2640     3.5890     1.0180 ha         1 611       0.176000
     37 HO8         -5.2440     2.0660     2.6560 ho         1 611       0.528000
     38 HO9         -3.3520     0.7870     4.2730 ho         1 611       0.526000
     39 H10         -1.8260     2.8170    -1.9220 ha         1 611       0.203000
     40 H12          0.3220     3.7660    -2.3860 h1         1 611       0.070700
     41 H12A         0.5770     4.2410    -0.6860 h1         1 611       0.070700
     42 HN13         0.6250     1.6820    -0.2580 hn         1 611       0.310500
     43 H18          3.3590    -3.3660    -0.3340 ha         1 611       0.153000
     44 H20          2.1350     0.6790     0.5960 ha         1 611       0.160000
     45 HO22         2.6460    -1.4840    -4.2040 ho         1 611       0.498000
     46 HO23         3.4690    -3.8960    -2.4970 ho         1 611       0.487000
     47 H27         -0.3960    -2.3870     1.8620 ha         1 611       0.136000
     48 H28         -0.3640    -4.2830     0.2310 h4         1 611       0.021100
     49 H30         -1.2500    -1.7480    -2.9420 h4         1 611       0.021100
     50 H31         -1.3160     0.2450    -1.4400 ha         1 611       0.136000
@<TRIPOS>BOND
     1     1     2 1   
     2     1     5 1   
     3     1     8 1   
     4     1    32 1   
     5     2     3 1   
     6     2     9 1   
     7     2    33 1   
     8     3     4 1   
     9     3     7 1   
    10     3    34 1   
    11     4     5 1   
    12     5     6 1   
    13     5    35 1   
    14     6    10 2   
    15     6    36 1   
    16     7    11 1   
    17     8    37 1   
    18     9    38 1   
    19    10    12 1   
    20    10    39 1   
    21    11    27 ar  
    22    11    31 ar  
    23    12    13 1   
    24    12    40 1   
    25    12    41 1   
    26    13    14 1   
    27    13    42 1   
    28    14    15 1   
    29    14    24 2   
    30    15    16 ar  
    31    15    20 ar  
    32    16    17 ar  
    33    16    22 1   
    34    17    18 ar  
    35    17    23 1   
    36    18    19 ar  
    37    18    43 1   
    38    19    20 ar  
    39    19    21 1   
    40    20    44 1   
    41    21    25 1   
    42    21    26 1   
    43    22    45 1   
    44    23    46 1   
    45    27    28 ar  
    46    27    47 1   
    47    28    29 ar  
    48    28    48 1   
    49    29    30 ar  
    50    30    31 ar  
    51    30    49 1   
    52    31    50 1   
@<TRIPOS>SUBSTRUCTURE
     1 611         1 TEMP              0 ****  ****    0 ROOT
