@<TRIPOS>MOLECULE
612
   48    49     1     0     0
SMALL
abcg2


@<TRIPOS>ATOM
      1 C1          -2.2010    -0.7890     0.0750 c6         1 612       0.080300
      2 C2          -2.7660     0.5540     0.5100 c6         1 612      -0.071400
      3 C3          -3.9730     0.3520     1.4240 c6         1 612      -0.073400
      4 C4          -5.0420    -0.4950     0.7430 c6         1 612      -0.076400
      5 C5          -4.4710    -1.8330     0.2850 c6         1 612      -0.073400
      6 C6          -3.2570    -1.6430    -0.6230 c6         1 612      -0.071400
      7 S           -0.8100    -0.6170    -1.1140 ss         1 612      -0.328600
      8 C7           0.4240     0.1440    -0.0950 cc         1 612       0.196200
      9 C12          0.6900     1.4710    -0.1880 cd         1 612      -0.194400
     10 CF          -0.0180     2.4100    -1.1370 c3         1 612      -0.003500
     11 CH          -0.6110     3.6450    -0.4570 c3         1 612      -0.085100
     12 CI           0.8830     2.7900    -2.3130 c3         1 612      -0.085100
     13 C11          1.7530     2.0100     0.6560 c          1 612       0.581200
     14 O11          2.1780     3.1490     0.6150 o          1 612      -0.522000
     15 N8           1.1000    -0.7010     0.7820 n          1 612      -0.348000
     16 C9           2.0230    -0.2120     1.6840 c          1 612       0.612000
     17 O9           2.5960    -0.8990     2.5050 o          1 612      -0.563000
     18 N10          2.2690     1.1270     1.5790 ns         1 612      -0.466500
     19 CA           1.0310    -2.1590     0.6260 c3         1 612       0.325000
     20 OB           1.6380    -2.5910    -0.5400 os         1 612      -0.447000
     21 CC           3.0510    -2.4720    -0.5650 c3         1 612       0.150600
     22 CD           3.5700    -3.1440    -1.8150 c3         1 612      -0.092100
     23 H1          -1.8300    -1.3330     0.9500 h1         1 612       0.067700
     24 H2          -2.0030     1.1430     1.0220 hc         1 612       0.053950
     25 H2A         -3.0680     1.1190    -0.3770 hc         1 612       0.053950
     26 H3          -3.6530    -0.1370     2.3500 hc         1 612       0.043450
     27 H3A         -4.3790     1.3240     1.7110 hc         1 612       0.043450
     28 H4          -5.8860    -0.6550     1.4170 hc         1 612       0.043200
     29 H4A         -5.4310     0.0480    -0.1250 hc         1 612       0.043200
     30 H5          -4.1770    -2.4230     1.1590 hc         1 612       0.043450
     31 H5A         -5.2300    -2.4140    -0.2430 hc         1 612       0.043450
     32 H6          -3.5680    -1.1500    -1.5500 hc         1 612       0.053950
     33 H6A         -2.8370    -2.6120    -0.8990 hc         1 612       0.053950
     34 HF          -0.8600     1.8530    -1.5470 hc         1 612       0.064700
     35 HH          -1.2390     4.1800    -1.1720 hc         1 612       0.040033
     36 HHA         -1.2410     3.3720     0.3910 hc         1 612       0.040033
     37 HHB          0.1500     4.3360    -0.1040 hc         1 612       0.040033
     38 HI           1.2400     1.9030    -2.8370 hc         1 612       0.040033
     39 HIA          0.3290     3.3990    -3.0290 hc         1 612       0.040033
     40 HIB          1.7510     3.3640    -1.9900 hc         1 612       0.040033
     41 HN10         2.9720     1.4920     2.2110 hn         1 612       0.343500
     42 HA           1.4860    -2.5910     1.5180 h2         1 612       0.082200
     43 HAA         -0.0080    -2.4710     0.5860 h2         1 612       0.082200
     44 HC           3.3520    -1.4170    -0.5650 h1         1 612       0.031700
     45 HCA          3.4880    -2.9340     0.3290 h1         1 612       0.031700
     46 HD           3.1520    -2.6870    -2.7120 hc         1 612       0.045367
     47 HDA          4.6540    -3.0410    -1.8620 hc         1 612       0.045367
     48 HDB          3.3330    -4.2080    -1.8250 hc         1 612       0.045367
@<TRIPOS>BOND
     1     1     2 1   
     2     1     6 1   
     3     1     7 1   
     4     1    23 1   
     5     2     3 1   
     6     2    24 1   
     7     2    25 1   
     8     3     4 1   
     9     3    26 1   
    10     3    27 1   
    11     4     5 1   
    12     4    28 1   
    13     4    29 1   
    14     5     6 1   
    15     5    30 1   
    16     5    31 1   
    17     6    32 1   
    18     6    33 1   
    19     7     8 1   
    20     8     9 2   
    21     8    15 1   
    22     9    10 1   
    23     9    13 1   
    24    10    11 1   
    25    10    12 1   
    26    10    34 1   
    27    11    35 1   
    28    11    36 1   
    29    11    37 1   
    30    12    38 1   
    31    12    39 1   
    32    12    40 1   
    33    13    14 2   
    34    13    18 1   
    35    15    16 1   
    36    15    19 1   
    37    16    17 2   
    38    16    18 1   
    39    18    41 1   
    40    19    20 1   
    41    19    42 1   
    42    19    43 1   
    43    20    21 1   
    44    21    22 1   
    45    21    44 1   
    46    21    45 1   
    47    22    46 1   
    48    22    47 1   
    49    22    48 1   
@<TRIPOS>SUBSTRUCTURE
     1 612         1 TEMP              0 ****  ****    0 ROOT
