@<TRIPOS>MOLECULE
612
   48    49     1     0     0
SMALL
No Charge or Current Charge


@<TRIPOS>ATOM
      1 C1          -2.2180    -0.7940    -0.0710 c6         1 612       0.080300
      2 C2          -2.7100     0.5280     0.5760 c6         1 612      -0.071400
      3 C3          -3.8770     0.2810     1.5640 c6         1 612      -0.073400
      4 C4          -5.0460    -0.4670     0.8790 c6         1 612      -0.076400
      5 C5          -4.5600    -1.7910     0.2420 c6         1 612      -0.073400
      6 C6          -3.3960    -1.5390    -0.7490 c6         1 612      -0.071400
      7 S           -0.8360    -0.5210    -1.2780 ss         1 612      -0.328600
      8 C7           0.4070     0.1260    -0.2000 cc         1 612       0.196200
      9 C12          0.6400     1.4970    -0.2890 cd         1 612      -0.194400
     10 CF          -0.0760     2.4960    -1.2200 c3         1 612      -0.003500
     11 CH          -0.7900     3.6480    -0.4690 c3         1 612      -0.085100
     12 CI           0.8580     3.0190    -2.3350 c3         1 612      -0.085100
     13 C11          1.7010     2.0620     0.6020 c          1 612       0.581200
     14 O11          2.0500     3.2300     0.6430 o          1 612      -0.522000
     15 N8           1.1600    -0.7110     0.6240 n          1 612      -0.348000
     16 C9           2.1060    -0.1770     1.5040 c          1 612       0.612000
     17 O9           2.7490    -0.8450     2.2960 o          1 612      -0.563000
     18 N10          2.2980     1.1590     1.4230 ns         1 612      -0.466500
     19 CA           1.0100    -2.1860     0.5880 c3         1 612       0.325000
     20 OB           1.7590    -2.7360    -0.5160 os         1 612      -0.447000
     21 CC           3.1900    -2.6710    -0.4000 c3         1 612       0.150600
     22 CD           3.7840    -3.3800    -1.6270 c3         1 612      -0.092100
     23 H1          -1.8310    -1.4360     0.7320 h1         1 612       0.067700
     24 H2          -1.8840     1.0110     1.1130 hc         1 612       0.053950
     25 H2A         -3.0290     1.2280    -0.2090 hc         1 612       0.053950
     26 H3          -3.5170    -0.3030     2.4230 hc         1 612       0.043450
     27 H3A         -4.2320     1.2390     1.9670 hc         1 612       0.043450
     28 H4          -5.8380    -0.6730     1.6120 hc         1 612       0.043200
     29 H4A         -5.4940     0.1740     0.1070 hc         1 612       0.043200
     30 H5          -4.2330    -2.4840     1.0290 hc         1 612       0.043450
     31 H5A         -5.3930    -2.2820    -0.2790 hc         1 612       0.043450
     32 H6          -3.7600    -0.9530    -1.6050 hc         1 612       0.053950
     33 H6A         -3.0440    -2.4970    -1.1550 hc         1 612       0.053950
     34 HF          -0.8900     2.0010    -1.7560 hc         1 612       0.064700
     35 HH          -1.4600     4.1870    -1.1510 hc         1 612       0.040033
     36 HHA         -1.3950     3.2600     0.3580 hc         1 612       0.040033
     37 HHB         -0.0820     4.3790    -0.0640 hc         1 612       0.040033
     38 HI           1.3040     2.1800    -2.8840 hc         1 612       0.040033
     39 HIA          0.2970     3.6310    -3.0510 hc         1 612       0.040033
     40 HIB          1.6690     3.6330    -1.9290 hc         1 612       0.040033
     41 HN10         2.9980     1.5340     2.0430 hn         1 612       0.343500
     42 HA           1.3400    -2.6090     1.5440 h2         1 612       0.082200
     43 HAA         -0.0520    -2.4230     0.4820 h2         1 612       0.082200
     44 HC           3.5390    -1.6300    -0.3840 h1         1 612       0.031700
     45 HCA          3.5320    -3.1720     0.5140 h1         1 612       0.031700
     46 HD           3.4640    -2.8840    -2.5510 hc         1 612       0.045367
     47 HDA          4.8790    -3.3560    -1.5850 hc         1 612       0.045367
     48 HDB          3.4630    -4.4270    -1.6610 hc         1 612       0.045367
@<TRIPOS>BOND
     1     1     2 1   
     2     1     6 1   
     3     1     7 1   
     4     1    23 1   
     5     2     3 1   
     6     2    24 1   
     7     2    25 1   
     8     3     4 1   
     9     3    26 1   
    10     3    27 1   
    11     4     5 1   
    12     4    28 1   
    13     4    29 1   
    14     5     6 1   
    15     5    30 1   
    16     5    31 1   
    17     6    32 1   
    18     6    33 1   
    19     7     8 1   
    20     8     9 2   
    21     8    15 1   
    22     9    10 1   
    23     9    13 1   
    24    10    11 1   
    25    10    12 1   
    26    10    34 1   
    27    11    35 1   
    28    11    36 1   
    29    11    37 1   
    30    12    38 1   
    31    12    39 1   
    32    12    40 1   
    33    13    14 2   
    34    13    18 1   
    35    15    16 1   
    36    15    19 1   
    37    16    17 2   
    38    16    18 1   
    39    18    41 1   
    40    19    20 1   
    41    19    42 1   
    42    19    43 1   
    43    20    21 1   
    44    21    22 1   
    45    21    44 1   
    46    21    45 1   
    47    22    46 1   
    48    22    47 1   
    49    22    48 1   
@<TRIPOS>SUBSTRUCTURE
     1 612         1 TEMP              0 ****  ****    0 ROOT
