@<TRIPOS>MOLECULE
613
   31    32     1     0     0
SMALL
abcg2


@<TRIPOS>ATOM
      1 C1          -1.7150    -1.2050     0.4360 ca         1 613      -0.155500
      2 N1           0.4010    -0.0420     0.2420 nh         1 613      -0.788400
      3 CL1         -5.5320    -0.0440     0.2450 cl         1 613      -0.209000
      4 C2          -3.0960    -1.2150     0.4420 ca         1 613      -0.072500
      5 N2           3.2210    -0.0010    -0.0980 nh         1 613      -0.757600
      6 C3          -3.7950    -0.0350     0.2290 ca         1 613       0.086000
      7 N3           5.1880     1.1960    -0.0560 n2         1 613      -0.899100
      8 C4          -3.1110     1.1450     0.0070 ca         1 613      -0.072500
      9 N4           5.2180    -1.0880    -0.6300 nv         1 613      -1.066200
     10 C5          -1.7230     1.1480    -0.0130 ca         1 613      -0.155500
     11 C6          -0.9900    -0.0240     0.2080 ca         1 613       0.298000
     12 C7           1.1100     1.2180     0.1520 c6         1 613       0.187800
     13 C8           2.5430     1.0580     0.6220 c6         1 613       0.212800
     14 C9           2.5090    -1.2600    -0.0550 c6         1 613       0.212800
     15 C10          1.0780    -1.0760    -0.5250 c6         1 613       0.187800
     16 C11          4.5910     0.0720    -0.2250 c2         1 613       0.807100
     17 H1          -1.1970    -2.1330     0.6380 ha         1 613       0.117500
     18 H2          -3.6240    -2.1410     0.6280 ha         1 613       0.126000
     19 HN3          6.1850     1.0940    -0.1980 hn         1 613       0.380400
     20 H4          -3.6470     2.0680    -0.1690 ha         1 613       0.126000
     21 HN4          4.8750    -1.9650    -0.2720 hn         1 613       0.450500
     22 HN4A         6.2230    -1.0480    -0.5750 hn         1 613       0.450500
     23 H5          -1.2240     2.0850    -0.2180 ha         1 613       0.117500
     24 H7           1.0990     1.6170    -0.8730 h1         1 613       0.049200
     25 H7A          0.6340     1.9550     0.8000 h1         1 613       0.049200
     26 H8           2.5490     0.8520     1.7010 h1         1 613       0.054200
     27 H8A          3.0740     1.9920     0.4630 h1         1 613       0.054200
     28 H9           2.9660    -1.9870    -0.7240 h1         1 613       0.054200
     29 H9A          2.5060    -1.6850     0.9580 h1         1 613       0.054200
     30 H10          0.5670    -2.0300    -0.4170 h1         1 613       0.049200
     31 H10A         1.0780    -0.8230    -1.5950 h1         1 613       0.049200
@<TRIPOS>BOND
     1     1     4 ar  
     2     1    11 ar  
     3     1    17 1   
     4     2    11 1   
     5     2    12 1   
     6     2    15 1   
     7     3     6 1   
     8     4     6 ar  
     9     4    18 1   
    10     5    13 1   
    11     5    14 1   
    12     5    16 1   
    13     6     8 ar  
    14     7    16 2   
    15     7    19 1   
    16     8    10 ar  
    17     8    20 1   
    18     9    16 1   
    19     9    21 1   
    20     9    22 1   
    21    10    11 ar  
    22    10    23 1   
    23    12    13 1   
    24    12    24 1   
    25    12    25 1   
    26    13    26 1   
    27    13    27 1   
    28    14    15 1   
    29    14    28 1   
    30    14    29 1   
    31    15    30 1   
    32    15    31 1   
@<TRIPOS>SUBSTRUCTURE
     1 613         1 TEMP              0 ****  ****    0 ROOT
