@<TRIPOS>MOLECULE
613
   31    32     1     0     0
SMALL
No Charge or Current Charge


@<TRIPOS>ATOM
      1 C1          -1.6910    -1.2390     0.4380 ca         1 613      -0.155500
      2 N1           0.3750    -0.0130     0.0080 nh         1 613      -0.788400
      3 Cl1         -5.5930    -0.1540     0.6120 cl         1 613      -0.209000
      4 C2          -3.0900    -1.2810     0.5820 ca         1 613      -0.072500
      5 N2           3.3380    -0.0000    -0.3360 nh         1 613      -0.757600
      6 C3          -3.8440    -0.1060     0.4340 ca         1 613       0.086000
      7 N3           5.3560     0.8010    -0.9610 n2         1 613      -0.899100
      8 C4          -3.2010     1.1080     0.1440 ca         1 613      -0.072500
      9 N4           5.2070    -0.9680     0.4430 nv         1 613      -1.066200
     10 C5          -1.8010     1.1460     0.0020 ca         1 613      -0.155500
     11 C6          -1.0330    -0.0280     0.1460 ca         1 613       0.298000
     12 C7           1.1710     1.2300     0.2580 c6         1 613       0.187800
     13 C8           2.6640     0.9360     0.6160 c6         1 613       0.212800
     14 C9           2.5240    -1.2210    -0.6370 c6         1 613       0.212800
     15 C10          1.0350    -0.9060    -0.9950 c6         1 613       0.187800
     16 C11          4.6820    -0.0560    -0.3530 c2         1 613       0.807100
     17 H1          -1.1150    -2.1510     0.5660 ha         1 613       0.117500
     18 H2          -3.5880    -2.2200     0.8090 ha         1 613       0.126000
     19 HN3          6.3420     0.5670    -0.8060 hn         1 613       0.380400
     20 H4          -3.7850     2.0170     0.0270 ha         1 613       0.126000
     21 HN4          4.4980    -1.3550     1.0460 hn         1 613       0.450500
     22 HN4A         6.0310    -0.6480     0.9320 hn         1 613       0.450500
     23 H5          -1.3220     2.0920    -0.2330 ha         1 613       0.117500
     24 H7           1.1470     1.8690    -0.6370 h1         1 613       0.049200
     25 H7A          0.7290     1.8080     1.0830 h1         1 613       0.049200
     26 H8           2.7120     0.5250     1.6350 h1         1 613       0.054200
     27 H8A          3.1980     1.8980     0.6380 h1         1 613       0.054200
     28 H9           2.9670    -1.7640    -1.4850 h1         1 613       0.054200
     29 H9A          2.5410    -1.9060     0.2240 h1         1 613       0.054200
     30 H10          0.4950    -1.8580    -1.0890 h1         1 613       0.049200
     31 H10A         1.0100    -0.4250    -1.9840 h1         1 613       0.049200
@<TRIPOS>BOND
     1     1     4 ar  
     2     1    11 ar  
     3     1    17 1   
     4     2    11 1   
     5     2    12 1   
     6     2    15 1   
     7     3     6 1   
     8     4     6 ar  
     9     4    18 1   
    10     5    13 1   
    11     5    14 1   
    12     5    16 1   
    13     6     8 ar  
    14     7    16 2   
    15     7    19 1   
    16     8    10 ar  
    17     8    20 1   
    18     9    16 1   
    19     9    21 1   
    20     9    22 1   
    21    10    11 ar  
    22    10    23 1   
    23    12    13 1   
    24    12    24 1   
    25    12    25 1   
    26    13    26 1   
    27    13    27 1   
    28    14    15 1   
    29    14    28 1   
    30    14    29 1   
    31    15    30 1   
    32    15    31 1   
@<TRIPOS>SUBSTRUCTURE
     1 613         1 TEMP              0 ****  ****    0 ROOT
