@<TRIPOS>MOLECULE
614
   63    67     1     0     0
SMALL
abcg2


@<TRIPOS>ATOM
      1 N1          15.5100     5.9510    -3.1250 nc         1 614      -0.497300
      2 N2          16.7760     6.4330    -2.9710 n          1 614      -0.133800
      3 C3          14.5330     6.7730    -3.3280 cd         1 614       0.623800
      4 C4          17.1380     7.7510    -3.0020 c          1 614       0.550600
      5 C5          16.0290     8.6880    -3.2310 ca         1 614      -0.130600
      6 C6          14.7170     8.2120    -3.4000 ca         1 614      -0.129900
      7 C7          12.8990     4.9280    -3.4540 cc         1 614       0.255000
      8 N8          13.2640     6.2570    -3.4820 nu         1 614      -0.905200
      9 N9          11.5950     4.5890    -3.6130 na         1 614      -0.068200
     10 C10         13.5960     3.7400    -3.2920 cd         1 614      -0.245000
     11 N11         11.3990     3.2430    -3.5630 nc         1 614      -0.524800
     12 C12         12.6090     2.7290    -3.3700 cd         1 614       0.279300
     13 N13         16.0410    12.9470    -2.2670 n3         1 614      -0.713600
     14 N14         14.6170    15.3480    -1.4300 n3         1 614      -0.712600
     15 C15         13.6890     9.1370    -3.6280 ca         1 614      -0.109000
     16 C16         17.7810     5.3870    -2.7360 c6         1 614       0.130700
     17 C17         16.2910    10.0570    -3.2830 ca         1 614      -0.026000
     18 O18         18.3110     8.1180    -2.8490 o          1 614      -0.557000
     19 C19         15.2740    10.9690    -3.5100 ca         1 614      -0.079300
     20 C20         15.5710    12.4460    -3.5630 c3         1 614       0.207100
     21 O21         18.5360     2.6310    -2.3800 os         1 614      -0.457000
     22 C22         15.0120    12.9320    -1.2220 c6         1 614       0.160800
     23 C23         16.6310    14.2850    -2.3490 c6         1 614       0.160800
     24 C24         15.5990    15.3990    -2.5120 c6         1 614       0.126800
     25 C25         13.9710    14.0370    -1.3800 c6         1 614       0.126800
     26 C26         13.9700    10.4890    -3.6820 ca         1 614      -0.082000
     27 C27         17.5070     4.6320    -1.4360 c6         1 614      -0.121900
     28 C28         17.8700     4.4150    -3.9110 c6         1 614      -0.121900
     29 C29         13.6390    16.4160    -1.5550 c3         1 614       0.150100
     30 C30         18.5330     3.5190    -1.2640 c6         1 614       0.153600
     31 C31         18.8700     3.3100    -3.5900 c6         1 614       0.153600
     32 C32         12.8120     1.2540    -3.2610 c3         1 614      -0.122400
     33 HN8         12.5160     6.9170    -3.6110 hn         1 614       0.499000
     34 H10         14.6510     3.6260    -3.1400 ha         1 614       0.165000
     35 H15         12.6640     8.8200    -3.7630 ha         1 614       0.109000
     36 H16         18.7250     5.9200    -2.6430 h1         1 614       0.085700
     37 H17         17.3080    10.3970    -3.1440 ha         1 614       0.154000
     38 H20         14.6850    12.9720    -3.9400 h1         1 614       0.042700
     39 H20A        16.3740    12.6230    -4.2830 h1         1 614       0.042700
     40 H22         14.5230    11.9570    -1.2110 h1         1 614       0.063450
     41 H22A        15.5170    13.0610    -0.2600 h1         1 614       0.063450
     42 H23         17.1870    14.4600    -1.4220 h1         1 614       0.063450
     43 H23A        17.3410    14.3090    -3.1770 h1         1 614       0.063450
     44 H24         15.1050    15.3170    -3.4970 h1         1 614       0.034450
     45 H24A        16.1020    16.3690    -2.4840 h1         1 614       0.034450
     46 H25         13.2860    14.0160    -0.5290 h1         1 614       0.034450
     47 H25A        13.3660    13.8620    -2.2870 h1         1 614       0.034450
     48 H26         13.1660    11.1940    -3.8570 ha         1 614       0.117000
     49 H27         17.5590     5.3150    -0.5850 hc         1 614       0.064450
     50 H27A        16.5040     4.2030    -1.4650 hc         1 614       0.064450
     51 H28         16.8890     3.9750    -4.0990 hc         1 614       0.064450
     52 H28A        18.1840     4.9420    -4.8150 hc         1 614       0.064450
     53 H29         12.9470    16.3840    -0.7110 h1         1 614       0.032033
     54 H29A        14.1450    17.3830    -1.5540 h1         1 614       0.032033
     55 H29B        13.0500    16.3380    -2.4850 h1         1 614       0.032033
     56 H30         18.3050     2.9120    -0.3880 h1         1 614       0.047450
     57 H30A        19.5370     3.9460    -1.1370 h1         1 614       0.047450
     58 H31         19.8820     3.7300    -3.5020 h1         1 614       0.047450
     59 H31A        18.8790     2.5550    -4.3750 h1         1 614       0.047450
     60 H32         11.8580     0.7330    -3.3420 hc         1 614       0.048700
     61 H32A        13.4730     0.8890    -4.0520 hc         1 614       0.048700
     62 H32B        13.2720     0.9900    -2.3060 hc         1 614       0.048700
     63 HN9         10.8130     5.2080    -3.7520 hn         1 614       0.363000
@<TRIPOS>BOND
     1     1     2 1   
     2     1     3 2   
     3     2     4 1   
     4     2    16 1   
     5     3     6 1   
     6     3     8 1   
     7     4     5 1   
     8     4    18 2   
     9     5     6 ar  
    10     5    17 ar  
    11     6    15 ar  
    12     7     8 1   
    13     7     9 1   
    14     7    10 2   
    15     8    33 1   
    16     9    11 1   
    17     9    63 1   
    18    10    12 1   
    19    10    34 1   
    20    11    12 2   
    21    12    32 1   
    22    13    20 1   
    23    13    22 1   
    24    13    23 1   
    25    14    24 1   
    26    14    25 1   
    27    14    29 1   
    28    15    26 ar  
    29    15    35 1   
    30    16    27 1   
    31    16    28 1   
    32    16    36 1   
    33    17    19 ar  
    34    17    37 1   
    35    19    20 1   
    36    19    26 ar  
    37    20    38 1   
    38    20    39 1   
    39    21    30 1   
    40    21    31 1   
    41    22    25 1   
    42    22    40 1   
    43    22    41 1   
    44    23    24 1   
    45    23    42 1   
    46    23    43 1   
    47    24    44 1   
    48    24    45 1   
    49    25    46 1   
    50    25    47 1   
    51    26    48 1   
    52    27    30 1   
    53    27    49 1   
    54    27    50 1   
    55    28    31 1   
    56    28    51 1   
    57    28    52 1   
    58    29    53 1   
    59    29    54 1   
    60    29    55 1   
    61    30    56 1   
    62    30    57 1   
    63    31    58 1   
    64    31    59 1   
    65    32    60 1   
    66    32    61 1   
    67    32    62 1   
@<TRIPOS>SUBSTRUCTURE
     1 614         1 TEMP              0 ****  ****    0 ROOT
