@<TRIPOS>MOLECULE
614
   63    67     1     0     0
SMALL
No Charge or Current Charge


@<TRIPOS>ATOM
      1 N1          15.5470     5.9500    -3.2910 nc         1 614      -0.497300
      2 N2          16.8520     6.3910    -3.0760 n          1 614      -0.133800
      3 C3          14.5690     6.8180    -3.5130 cd         1 614       0.623800
      4 C4          17.2610     7.7520    -3.0530 c          1 614       0.550600
      5 C5          16.1630     8.7460    -3.3140 ca         1 614      -0.130600
      6 C6          14.8460     8.2780    -3.5380 ca         1 614      -0.129900
      7 C7          12.8380     4.9860    -3.6610 cc         1 614       0.255000
      8 N8          13.3320     6.2730    -3.7390 nu         1 614      -0.905200
      9 N9          11.5490     4.6190    -4.0340 na         1 614      -0.068200
     10 C10         13.3880     3.8190    -3.2280 cd         1 614      -0.245000
     11 N11         11.2750     3.2670    -3.8580 nc         1 614      -0.524800
     12 C12         12.4140     2.8120    -3.3670 cd         1 614       0.279300
     13 N13         16.2070    13.0610    -2.2720 n3         1 614      -0.713600
     14 N14         14.4330    15.2930    -1.3490 n3         1 614      -0.712600
     15 C15         13.8200     9.2240    -3.7730 ca         1 614      -0.109000
     16 C16         17.8430     5.3030    -2.8110 c6         1 614       0.130700
     17 C17         16.4380    10.1300    -3.3320 ca         1 614      -0.026000
     18 O18         18.4180     8.1010    -2.8370 o          1 614      -0.557000
     19 C19         15.4120    11.0610    -3.5700 ca         1 614      -0.079300
     20 C20         15.7230    12.5540    -3.5820 c3         1 614       0.207100
     21 O21         18.5740     2.5720    -2.1900 os         1 614      -0.457000
     22 C22         15.2240    12.8880    -1.1520 c6         1 614       0.160800
     23 C23         16.6410    14.4930    -2.3220 c6         1 614       0.160800
     24 C24         15.4350    15.4840    -2.4420 c6         1 614       0.126800
     25 C25         14.0050    13.8620    -1.2670 c6         1 614       0.126800
     26 C26         14.1030    10.6000    -3.7890 ca         1 614      -0.082000
     27 C27         17.6640     4.7010    -1.3910 c6         1 614      -0.121900
     28 C28         17.8130     4.1700    -3.8780 c6         1 614      -0.121900
     29 C29         13.2920    16.2290    -1.4440 c3         1 614       0.150100
     30 C30         18.6900     3.5700    -1.1520 c6         1 614       0.153600
     31 C31         18.8390     3.0710    -3.5190 c6         1 614       0.153600
     32 C32         12.5730     1.3600    -3.0140 c3         1 614      -0.122400
     33 HN8         12.6550     6.9740    -4.0220 hn         1 614       0.499000
     34 H10         14.3870     3.6780    -2.8410 ha         1 614       0.165000
     35 H15         12.7950     8.9080    -3.9420 ha         1 614       0.109000
     36 H16         18.8530     5.7340    -2.8500 h1         1 614       0.085700
     37 H17         17.4500    10.4900    -3.1540 ha         1 614       0.154000
     38 H20         14.8280    13.1030    -3.9030 h1         1 614       0.042700
     39 H20A        16.4890    12.7290    -4.3490 h1         1 614       0.042700
     40 H22         14.8550    11.8530    -1.1040 h1         1 614       0.063450
     41 H22A        15.7230    13.0810    -0.1910 h1         1 614       0.063450
     42 H23         17.1980    14.7440    -1.4070 h1         1 614       0.063450
     43 H23A        17.3310    14.6620    -3.1630 h1         1 614       0.063450
     44 H24         14.9560    15.3480    -3.4230 h1         1 614       0.034450
     45 H24A        15.8250    16.5130    -2.4210 h1         1 614       0.034450
     46 H25         13.3550    13.7120    -0.3930 h1         1 614       0.034450
     47 H25A        13.4130    13.5900    -2.1530 h1         1 614       0.034450
     48 H26         13.2980    11.3100    -3.9700 ha         1 614       0.117000
     49 H27         17.7890     5.4830    -0.6310 hc         1 614       0.064450
     50 H27A        16.6480     4.3020    -1.2710 hc         1 614       0.064450
     51 H28         16.8160     3.7150    -3.9410 hc         1 614       0.064450
     52 H28A        18.0380     4.5810    -4.8710 hc         1 614       0.064450
     53 H29         12.6120    16.0980    -0.5920 h1         1 614       0.032033
     54 H29A        13.6440    17.2690    -1.4400 h1         1 614       0.032033
     55 H29B        12.7230    16.0600    -2.3680 h1         1 614       0.032033
     56 H30         18.5070     3.0950    -0.1770 h1         1 614       0.047450
     57 H30A        19.7130     3.9740    -1.1480 h1         1 614       0.047450
     58 H31         19.8630     3.4710    -3.5610 h1         1 614       0.047450
     59 H31A        18.7670     2.2400    -4.2350 h1         1 614       0.047450
     60 H32         11.8620     1.0660    -2.2340 hc         1 614       0.048700
     61 H32A        12.4000     0.7230    -3.8890 hc         1 614       0.048700
     62 H32B        13.5830     1.1540    -2.6430 hc         1 614       0.048700
     63 HN9         10.8470     5.2510    -4.4080 hn         1 614       0.363000
@<TRIPOS>BOND
     1     1     2 1   
     2     1     3 2   
     3     2     4 1   
     4     2    16 1   
     5     3     6 1   
     6     3     8 1   
     7     4     5 1   
     8     4    18 2   
     9     5     6 ar  
    10     5    17 ar  
    11     6    15 ar  
    12     7     8 1   
    13     7     9 1   
    14     7    10 2   
    15     8    33 1   
    16     9    11 1   
    17     9    63 1   
    18    10    12 1   
    19    10    34 1   
    20    11    12 2   
    21    12    32 1   
    22    13    20 1   
    23    13    22 1   
    24    13    23 1   
    25    14    24 1   
    26    14    25 1   
    27    14    29 1   
    28    15    26 ar  
    29    15    35 1   
    30    16    27 1   
    31    16    28 1   
    32    16    36 1   
    33    17    19 ar  
    34    17    37 1   
    35    19    20 1   
    36    19    26 ar  
    37    20    38 1   
    38    20    39 1   
    39    21    30 1   
    40    21    31 1   
    41    22    25 1   
    42    22    40 1   
    43    22    41 1   
    44    23    24 1   
    45    23    42 1   
    46    23    43 1   
    47    24    44 1   
    48    24    45 1   
    49    25    46 1   
    50    25    47 1   
    51    26    48 1   
    52    27    30 1   
    53    27    49 1   
    54    27    50 1   
    55    28    31 1   
    56    28    51 1   
    57    28    52 1   
    58    29    53 1   
    59    29    54 1   
    60    29    55 1   
    61    30    56 1   
    62    30    57 1   
    63    31    58 1   
    64    31    59 1   
    65    32    60 1   
    66    32    61 1   
    67    32    62 1   
@<TRIPOS>SUBSTRUCTURE
     1 614         1 TEMP              0 ****  ****    0 ROOT
