@<TRIPOS>MOLECULE
616
   60    61     1     0     0
SMALL
abcg2


@<TRIPOS>ATOM
      1 O5          -9.9460    24.8280    35.7160 o          1 616      -0.516100
      2 C30         -9.8500    24.5840    36.8990 c          1 616       0.571900
      3 C7         -10.1970    23.2680    37.5440 c3         1 616      -0.189700
      4 C27        -11.3160    23.4850    38.6050 c3         1 616      -0.046700
      5 C17        -10.7550    24.0960    39.8910 c3         1 616      -0.093600
      6 C1         -12.4920    24.3030    38.0680 c3         1 616      -0.093600
      7 C8         -10.5060    22.1930    36.4820 c5         1 616       0.113700
      8 C29         -9.2310    21.7700    35.7410 c5         1 616       0.202500
      9 N2          -9.6200    21.1940    34.4290 n7         1 616      -0.870300
     10 S1          -8.4950    21.2890    33.2210 s6         1 616       1.189100
     11 O2          -7.2400    20.8220    33.7710 o          1 616      -0.547000
     12 O1          -8.4880    22.5980    32.5950 o          1 616      -0.547000
     13 C3          -9.1240    20.1150    32.0560 c3         1 616      -0.349100
     14 C28         -8.6440    20.6940    36.6570 c5         1 616      -0.093400
     15 C26         -9.8650    19.9620    37.2240 c5         1 616       0.111000
     16 N1         -10.9700    20.9280    37.0590 n          1 616      -0.412800
     17 C2         -12.2890    20.6140    37.0980 c          1 616       0.608300
     18 O3         -13.1570    21.3950    36.6890 o          1 616      -0.615100
     19 C4         -12.6330    19.3030    37.7060 ce         1 616      -0.306200
     20 C5         -13.8960    18.8900    37.7880 c2         1 616      -0.127200
     21 C6         -14.3330    17.6020    38.4060 c3         1 616       0.187000
     22 N49        -15.4230    17.8010    39.3570 n3         1 616      -0.716600
     23 C50        -16.0170    16.5230    39.7530 c6         1 616       0.164800
     24 C45        -17.2210    16.7320    40.6650 c6         1 616      -0.074400
     25 C46        -16.8360    17.5530    41.8960 c6         1 616      -0.075400
     26 C47        -16.1480    18.8490    41.4700 c6         1 616      -0.074400
     27 C48        -14.9850    18.5640    40.5280 c6         1 616       0.164800
     28 H30C        -9.5000    25.3660    37.5960 h4         1 616      -0.004800
     29 HC7         -9.3040    22.9670    38.1040 hc         1 616       0.066700
     30 H27C       -11.6800    22.4860    38.8520 hc         1 616       0.062700
     31 H171       -11.5400    24.1620    40.6470 hc         1 616       0.039533
     32 H172        -9.9450    23.4840    40.2940 hc         1 616       0.039533
     33 H173       -10.3690    25.1050    39.7280 hc         1 616       0.039533
     34 HC11       -13.3040    24.3100    38.7980 hc         1 616       0.039533
     35 HC12       -12.2040    25.3430    37.8880 hc         1 616       0.039533
     36 HC13       -12.8780    23.8830    37.1400 hc         1 616       0.039533
     37 HC8        -11.2670    22.5700    35.8030 h1         1 616       0.098700
     38 H29C        -8.5530    22.6100    35.6080 h1         1 616       0.074700
     39 HN2        -10.5010    21.5690    34.0900 hn         1 616       0.477000
     40 HC31        -8.4540    20.1430    31.1980 h1         1 616       0.104700
     41 HC32        -9.1280    19.1320    32.5200 h1         1 616       0.104700
     42 HC33       -10.1270    20.4180    31.7630 h1         1 616       0.104700
     43 H281        -7.9740    20.0270    36.1210 hc         1 616       0.072700
     44 H282        -8.0760    21.1740    37.4530 hc         1 616       0.072700
     45 H261       -10.0810    19.0570    36.6570 h1         1 616       0.049700
     46 H262        -9.7260    19.6920    38.2700 h1         1 616       0.049700
     47 HC4        -11.8390    18.6990    38.1240 ha         1 616       0.178000
     48 HC5        -14.6820    19.5210    37.3850 ha         1 616       0.207000
     49 HC61       -14.7080    16.9480    37.6120 h1         1 616       0.041700
     50 HC62       -13.4710    17.0910    38.8670 h1         1 616       0.041700
     51 H501       -16.3150    15.9910    38.8470 h1         1 616       0.030950
     52 H502       -15.2710    15.8930    40.2710 h1         1 616       0.030950
     53 H451       -18.0030    17.2540    40.1050 hc         1 616       0.048200
     54 H452       -17.6230    15.7600    40.9590 hc         1 616       0.048200
     55 H461       -17.7170    17.7660    42.5070 hc         1 616       0.039700
     56 H462       -16.1490    16.9690    42.5180 hc         1 616       0.039700
     57 H471       -16.8680    19.4970    40.9580 hc         1 616       0.048200
     58 H472       -15.7790    19.3970    42.3400 hc         1 616       0.048200
     59 H481       -14.1970    18.0100    41.0730 h1         1 616       0.030950
     60 H482       -14.5390    19.4990    40.1860 h1         1 616       0.030950
@<TRIPOS>BOND
     1     1     2 2   
     2     2     3 1   
     3     2    28 1   
     4     3     4 1   
     5     3     7 1   
     6     3    29 1   
     7     4     5 1   
     8     4     6 1   
     9     4    30 1   
    10     5    31 1   
    11     5    32 1   
    12     5    33 1   
    13     6    34 1   
    14     6    35 1   
    15     6    36 1   
    16     7     8 1   
    17     7    16 1   
    18     7    37 1   
    19     8     9 1   
    20     8    14 1   
    21     8    38 1   
    22     9    10 1   
    23     9    39 1   
    24    10    11 2   
    25    10    12 2   
    26    10    13 1   
    27    13    40 1   
    28    13    41 1   
    29    13    42 1   
    30    14    15 1   
    31    14    43 1   
    32    14    44 1   
    33    15    16 1   
    34    15    45 1   
    35    15    46 1   
    36    16    17 1   
    37    17    18 2   
    38    17    19 1   
    39    19    20 2   
    40    19    47 1   
    41    20    21 1   
    42    20    48 1   
    43    21    22 1   
    44    21    49 1   
    45    21    50 1   
    46    22    23 1   
    47    22    27 1   
    48    23    24 1   
    49    23    51 1   
    50    23    52 1   
    51    24    25 1   
    52    24    53 1   
    53    24    54 1   
    54    25    26 1   
    55    25    55 1   
    56    25    56 1   
    57    26    27 1   
    58    26    57 1   
    59    26    58 1   
    60    27    59 1   
    61    27    60 1   
@<TRIPOS>SUBSTRUCTURE
     1 616         1 TEMP              0 ****  ****    0 ROOT
