@<TRIPOS>MOLECULE
616
   60    61     1     0     0
SMALL
No Charge or Current Charge


@<TRIPOS>ATOM
      1 O5          -9.5660    25.1280    36.0940 o          1 616      -0.516100
      2 C30         -9.2940    24.5000    37.1110 c          1 616       0.571900
      3 C7         -10.1600    23.3560    37.6690 c3         1 616      -0.189700
      4 C27        -11.3920    23.9090    38.4640 c3         1 616      -0.046700
      5 C17        -10.9610    24.7140    39.7130 c3         1 616      -0.093600
      6 C1         -12.3800    24.7400    37.6040 c3         1 616      -0.093600
      7 C8         -10.4810    22.2890    36.5620 c5         1 616       0.113700
      8 C29         -9.2100    21.7510    35.7980 c5         1 616       0.202500
      9 N2          -9.6540    21.0370    34.5600 n7         1 616      -0.870300
     10 S1          -8.4810    20.9410    33.3810 s6         1 616       1.189100
     11 O2          -7.4290    20.0520    33.8760 o          1 616      -0.547000
     12 O1          -8.1870    22.3130    32.9680 o          1 616      -0.547000
     13 C3          -9.3610    20.0970    32.0860 c3         1 616      -0.349100
     14 C28         -8.6710    20.7050    36.8170 c5         1 616      -0.093400
     15 C26         -9.9630    19.9760    37.2730 c5         1 616       0.111000
     16 N1         -11.0050    21.0220    37.1440 n          1 616      -0.412800
     17 C2         -12.3830    20.7520    37.2850 c          1 616       0.608300
     18 O3         -13.2250    21.5560    36.9090 o          1 616      -0.615100
     19 C4         -12.7960    19.4230    37.8320 ce         1 616      -0.306200
     20 C5         -14.0390    18.9030    37.6850 c2         1 616      -0.127200
     21 C6         -14.5030    17.5520    38.1870 c3         1 616       0.187000
     22 N49        -15.4690    17.6720    39.3020 n3         1 616      -0.716600
     23 C50        -16.0980    16.3630    39.6360 c6         1 616       0.164800
     24 C45        -17.1950    16.5130    40.7200 c6         1 616      -0.074400
     25 C46        -16.6300    17.1850    41.9920 c6         1 616      -0.075400
     26 C47        -15.9430    18.5200    41.6250 c6         1 616      -0.074400
     27 C48        -14.8820    18.3160    40.5150 c6         1 616       0.164800
     28 H30C        -8.3780    24.7340    37.6980 h4         1 616      -0.004800
     29 HC7         -9.5350    22.8820    38.4350 hc         1 616       0.066700
     30 H27C       -11.9500    23.0440    38.8430 hc         1 616       0.062700
     31 H171       -11.8380    25.0070    40.3040 hc         1 616       0.039533
     32 H172       -10.3100    24.1140    40.3600 hc         1 616       0.039533
     33 H173       -10.4220    25.6280    39.4340 hc         1 616       0.039533
     34 HC11       -13.2830    24.9710    38.1810 hc         1 616       0.039533
     35 HC12       -11.9330    25.6900    37.2910 hc         1 616       0.039533
     36 HC13       -12.6910    24.1970    36.7060 hc         1 616       0.039533
     37 HC8        -11.1870    22.7320    35.8470 h1         1 616       0.098700
     38 H29C        -8.4860    22.5490    35.5770 h1         1 616       0.074700
     39 HN2        -10.3440    21.5990    34.0650 hn         1 616       0.477000
     40 HC31        -8.6600    19.9490    31.2580 h1         1 616       0.104700
     41 HC32        -9.7010    19.1390    32.4920 h1         1 616       0.104700
     42 HC33       -10.2030    20.7260    31.7830 h1         1 616       0.104700
     43 H281        -7.9370    20.0120    36.3970 hc         1 616       0.072700
     44 H282        -8.1780    21.1960    37.6630 hc         1 616       0.072700
     45 H261       -10.1890    19.1260    36.6150 h1         1 616       0.049700
     46 H262        -9.8710    19.6060    38.3030 h1         1 616       0.049700
     47 HC4        -12.0280    18.8330    38.3240 ha         1 616       0.178000
     48 HC5        -14.8230    19.4640    37.1730 ha         1 616       0.207000
     49 HC61       -14.9690    17.0190    37.3470 h1         1 616       0.041700
     50 HC62       -13.6340    16.9570    38.5000 h1         1 616       0.041700
     51 H501       -16.5520    15.9190    38.7380 h1         1 616       0.030950
     52 H502       -15.3350    15.6560    39.9950 h1         1 616       0.030950
     53 H451       -18.0250    17.1120    40.3200 hc         1 616       0.048200
     54 H452       -17.6100    15.5270    40.9680 hc         1 616       0.048200
     55 H461       -17.4350    17.3600    42.7190 hc         1 616       0.039700
     56 H462       -15.9050    16.5150    42.4750 hc         1 616       0.039700
     57 H471       -16.6950    19.2440    41.2830 hc         1 616       0.048200
     58 H472       -15.4700    18.9570    42.5150 hc         1 616       0.048200
     59 H481       -14.0620    17.6990    40.9120 h1         1 616       0.030950
     60 H482       -14.4540    19.2980    40.2660 h1         1 616       0.030950
@<TRIPOS>BOND
     1     1     2 2   
     2     2     3 1   
     3     2    28 1   
     4     3     4 1   
     5     3     7 1   
     6     3    29 1   
     7     4     5 1   
     8     4     6 1   
     9     4    30 1   
    10     5    31 1   
    11     5    32 1   
    12     5    33 1   
    13     6    34 1   
    14     6    35 1   
    15     6    36 1   
    16     7     8 1   
    17     7    16 1   
    18     7    37 1   
    19     8     9 1   
    20     8    14 1   
    21     8    38 1   
    22     9    10 1   
    23     9    39 1   
    24    10    11 2   
    25    10    12 2   
    26    10    13 1   
    27    13    40 1   
    28    13    41 1   
    29    13    42 1   
    30    14    15 1   
    31    14    43 1   
    32    14    44 1   
    33    15    16 1   
    34    15    45 1   
    35    15    46 1   
    36    16    17 1   
    37    17    18 2   
    38    17    19 1   
    39    19    20 2   
    40    19    47 1   
    41    20    21 1   
    42    20    48 1   
    43    21    22 1   
    44    21    49 1   
    45    21    50 1   
    46    22    23 1   
    47    22    27 1   
    48    23    24 1   
    49    23    51 1   
    50    23    52 1   
    51    24    25 1   
    52    24    53 1   
    53    24    54 1   
    54    25    26 1   
    55    25    55 1   
    56    25    56 1   
    57    26    27 1   
    58    26    57 1   
    59    26    58 1   
    60    27    59 1   
    61    27    60 1   
@<TRIPOS>SUBSTRUCTURE
     1 616         1 TEMP              0 ****  ****    0 ROOT
