@<TRIPOS>MOLECULE
617
   32    33     1     0     0
SMALL
No Charge or Current Charge


@<TRIPOS>ATOM
      1 C7           3.9120    -1.9460    -0.0470 c          1 617       0.724600
      2 C1           6.1690     1.1410    -0.1200 ca         1 617      -0.174000
      3 C8           0.8720     1.0490     0.1030 c          1 617       0.608100
      4 O2           4.6390    -2.7420     0.5300 o          1 617      -0.707000
      5 O1           2.8730    -2.2750    -0.6040 o          1 617      -0.707000
      6 C3           3.8700     1.9140    -0.1630 ca         1 617      -0.176000
      7 C2           5.2450     2.1910    -0.1630 ca         1 617      -0.104000
      8 O3           0.8960     2.2380     0.4140 o          1 617      -0.611100
      9 C4           3.3980     0.5830    -0.1170 ca         1 617       0.004000
     10 C5           4.3370    -0.4880    -0.0880 ca         1 617      -0.196600
     11 C6           5.7200    -0.1870    -0.0840 ca         1 617      -0.062000
     12 C9          -0.4420     0.2510    -0.0660 c3         1 617       0.061600
     13 O4          -1.6170     1.0610     0.1780 os         1 617      -0.309100
     14 C10         -2.8960     0.5540     0.0830 ca         1 617       0.161100
     15 C11         -3.1580    -0.7920    -0.2590 ca         1 617      -0.168500
     16 C12         -4.4870    -1.2510    -0.3410 ca         1 617      -0.069500
     17 C13         -5.5520    -0.3730    -0.0820 ca         1 617       0.070000
     18 C14         -5.2950     0.9660     0.2580 ca         1 617      -0.069500
     19 C15         -3.9680     1.4250     0.3400 ca         1 617      -0.168500
     20 Cl1         -7.2100    -0.9500    -0.1840 cl         1 617      -0.229000
     21 H1           7.2350     1.3540    -0.1190 ha         1 617       0.090000
     22 H3           3.1830     2.7530    -0.2130 ha         1 617       0.129000
     23 HN1          1.8160    -0.6910    -0.3300 hn         1 617       0.233000
     24 H2           5.5930     3.2210    -0.1990 ha         1 617       0.087000
     25 H6           6.4540    -0.9910    -0.0590 ha         1 617       0.128000
     26 H91         -0.4550    -0.1490    -1.0880 h1         1 617       0.060200
     27 H92         -0.4050    -0.5950     0.6320 h1         1 617       0.060200
     28 H11         -2.3520    -1.4910    -0.4640 ha         1 617       0.133500
     29 H12         -4.6900    -2.2860    -0.6040 ha         1 617       0.122000
     30 H14         -6.1210     1.6440     0.4580 ha         1 617       0.122000
     31 H15         -3.7680     2.4610     0.6030 ha         1 617       0.133500
     32 N1           2.0070     0.2820    -0.1160 ns         1 617      -0.173000
@<TRIPOS>BOND
     1     1     4 1   
     2     1     5 1   
     3     1    10 1   
     4     2     7 ar  
     5     2    11 ar  
     6     2    21 1   
     7     3     8 2   
     8     3    12 1   
     9     3    32 1   
    10     6     7 ar  
    11     6     9 ar  
    12     6    22 1   
    13     7    24 1   
    14     9    10 ar  
    15     9    32 1   
    16    10    11 ar  
    17    11    25 1   
    18    12    13 1   
    19    12    26 1   
    20    12    27 1   
    21    13    14 1   
    22    14    15 ar  
    23    14    19 ar  
    24    15    16 ar  
    25    15    28 1   
    26    16    17 ar  
    27    16    29 1   
    28    17    18 ar  
    29    17    20 1   
    30    18    19 ar  
    31    18    30 1   
    32    19    31 1   
    33    23    32 1   
@<TRIPOS>SUBSTRUCTURE
     1 617         1 TEMP              0 ****  ****    0 ROOT
