@<TRIPOS>MOLECULE
617
   32    33     1     0     0
SMALL
bcc


@<TRIPOS>ATOM
      1 C7           3.8540    -1.9310    -0.3140 c          1 617       0.935200
      2 C1           6.0300     1.1720    -0.0270 ca         1 617      -0.192000
      3 C8           0.8490     1.0060    -0.0030 c          1 617       0.675100
      4 O2           4.7730    -2.7560    -0.3800 o          1 617      -0.812300
      5 O1           2.6240    -2.2120    -0.3490 o          1 617      -0.812300
      6 C3           3.7370     1.9060     0.0500 ca         1 617      -0.194000
      7 C2           5.0930     2.1890     0.0740 ca         1 617      -0.122000
      8 O3           0.8210     2.2150     0.1290 o          1 617      -0.611100
      9 C4           3.2930     0.5850    -0.0760 ca         1 617       0.096600
     10 C5           4.2370    -0.4610    -0.1780 ca         1 617      -0.196600
     11 C6           5.5900    -0.1360    -0.1510 ca         1 617      -0.080000
     12 C9          -0.4250     0.1720    -0.0610 c3         1 617       0.038400
     13 O4          -1.5150     1.0510    -0.0090 os         1 617      -0.285900
     14 C10         -2.7600     0.5380    -0.0150 ca         1 617       0.161100
     15 C11         -3.0560    -0.8200    -0.0990 ca         1 617      -0.186500
     16 C12         -4.3790    -1.2440    -0.0970 ca         1 617      -0.087500
     17 C13         -5.4020    -0.3180    -0.0130 ca         1 617      -0.021600
     18 C14         -5.1180     1.0390     0.0700 ca         1 617      -0.087500
     19 C15         -3.8030     1.4620     0.0680 ca         1 617      -0.186500
     20 CL1         -7.0530    -0.8520    -0.0110 cl         1 617      -0.137400
     21 H1           7.0900     1.3920    -0.0080 ha         1 617       0.108000
     22 H3           3.0260     2.7120     0.1260 ha         1 617       0.147000
     23 HN1          1.8590    -0.8010    -0.2120 hn         1 617       0.399500
     24 H2           5.4130     3.2190     0.1720 ha         1 617       0.105000
     25 H6           6.3120    -0.9370    -0.2290 ha         1 617       0.146000
     26 H91         -0.4280    -0.4230    -0.9830 h1         1 617       0.060200
     27 H92         -0.4320    -0.5300     0.7820 h1         1 617       0.060200
     28 H11         -2.2800    -1.5700    -0.1650 ha         1 617       0.151500
     29 H12         -4.5970    -2.3020    -0.1620 ha         1 617       0.140000
     30 H14         -5.9170     1.7650     0.1350 ha         1 617       0.140000
     31 H15         -3.5780     2.5190     0.1330 ha         1 617       0.151500
     32 N1           1.9460     0.2330    -0.1070 ns         1 617      -0.499100
@<TRIPOS>BOND
     1     1     4 1   
     2     1     5 1   
     3     1    10 1   
     4     2     7 ar  
     5     2    11 ar  
     6     2    21 1   
     7     3     8 2   
     8     3    12 1   
     9     3    32 1   
    10     6     7 ar  
    11     6     9 ar  
    12     6    22 1   
    13     7    24 1   
    14     9    10 ar  
    15     9    32 1   
    16    10    11 ar  
    17    11    25 1   
    18    12    13 1   
    19    12    26 1   
    20    12    27 1   
    21    13    14 1   
    22    14    15 ar  
    23    14    19 ar  
    24    15    16 ar  
    25    15    28 1   
    26    16    17 ar  
    27    16    29 1   
    28    17    18 ar  
    29    17    20 1   
    30    18    19 ar  
    31    18    30 1   
    32    19    31 1   
    33    23    32 1   
@<TRIPOS>SUBSTRUCTURE
     1 617         1 TEMP              0 ****  ****    0 ROOT
