@<TRIPOS>MOLECULE
618
   67    70     1     0     0
SMALL
bcc


@<TRIPOS>ATOM
      1 O6          -3.1820    -1.8230    -3.4650 o          1 618      -0.573100
      2 C5          -2.5610    -0.7810    -3.3380 c          1 618       0.668100
      3 C3          -2.9000     0.4810    -4.1200 c3         1 618       0.099500
      4 N2          -3.4030     0.1050    -5.4230 n7         1 618      -0.796200
      5 C1          -3.5250     1.2110    -6.3510 c3         1 618       0.149100
      6 C4          -3.8490     1.3370    -3.2700 c3         1 618      -0.130100
      7 N7          -1.5440    -0.6530    -2.4640 ns         1 618      -0.580900
      8 C8          -1.2060    -1.6890    -1.5070 c3         1 618       0.086900
      9 C9          -0.8130    -3.0240    -2.1420 c          1 618       0.723500
     10 O15         -1.4200    -4.0460    -1.8700 o          1 618      -0.617500
     11 C14         -0.1280    -1.2020    -0.5670 c2         1 618      -0.205200
     12 C13          1.1830    -1.1420    -0.7930 c2         1 618      -0.117200
     13 C12          1.9590    -1.5120    -2.0170 c3         1 618      -0.067200
     14 C11          1.1040    -1.8910    -3.2120 c5         1 618       0.217800
     15 N10          0.2660    -3.0450    -2.9530 n          1 618      -0.459800
     16 S16          2.0240    -2.3460    -4.7010 ss         1 618      -0.319200
     17 C17          2.0020    -4.1390    -4.3170 c5         1 618       0.057100
     18 C19          1.8420    -4.9080    -5.6250 c3         1 618      -0.086100
     19 C20          3.3200    -4.5480    -3.6600 c3         1 618      -0.086100
     20 C18          0.7280    -4.3260    -3.4380 c5         1 618       0.034700
     21 C21          1.0020    -5.2580    -2.2580 c          1 618       0.680100
     22 O22          1.4530    -4.8700    -1.2050 o          1 618      -0.556100
     23 N23          0.7380    -6.5630    -2.5310 ns         1 618      -0.467100
     24 C24          0.9140    -7.5880    -1.6150 cc         1 618       0.054300
     25 C25          1.9410    -7.8670    -0.7510 cd         1 618      -0.303300
     26 C26          1.5640    -9.0770    -0.1340 cd         1 618       0.331600
     27 C29          2.3170    -9.8430     0.8970 c3         1 618      -0.119400
     28 N27          0.4020    -9.5000    -0.5880 nc         1 618      -0.510800
     29 N28         -0.0030    -8.5800    -1.4760 na         1 618       0.147300
     30 C30         -1.2240    -8.7490    -2.1650 ca         1 618       0.002800
     31 C31         -2.0920    -7.6760    -2.3350 ca         1 618      -0.126000
     32 C32         -3.2830    -7.8670    -3.0230 ca         1 618      -0.120500
     33 C33         -3.6180    -9.1190    -3.5170 ca         1 618      -0.129000
     34 C34         -2.7530   -10.1890    -3.3250 ca         1 618      -0.120500
     35 C35         -1.5520   -10.0080    -2.6570 ca         1 618      -0.126000
     36 H3          -1.9770     1.0500    -4.2790 h1         1 618       0.061700
     37 HN2         -4.2980    -0.3580    -5.3210 hn         1 618       0.376800
     38 H11A        -4.1570     2.0410    -6.0100 h1         1 618       0.030700
     39 H12         -3.9430     0.8460    -7.2890 h1         1 618       0.030700
     40 H13A        -2.5370     1.6200    -6.5700 h1         1 618       0.030700
     41 H41         -4.7740     0.7970    -3.0610 hc         1 618       0.045700
     42 H42         -3.3960     1.6140    -2.3180 hc         1 618       0.045700
     43 H43         -4.1060     2.2600    -3.7900 hc         1 618       0.045700
     44 HN7         -1.0900     0.2410    -2.3620 hn         1 618       0.317500
     45 H8          -2.0910    -1.9210    -0.9090 h1         1 618       0.090700
     46 H14         -0.4890    -0.8680     0.3980 ha         1 618       0.135000
     47 H13          1.7960    -0.7670     0.0210 ha         1 618       0.127000
     48 H121         2.5880    -0.6610    -2.2930 hc         1 618       0.075700
     49 H122         2.6480    -2.3210    -1.7620 hc         1 618       0.075700
     50 H11          0.4890    -1.0390    -3.5000 h2         1 618       0.094700
     51 H191         1.8110    -5.9810    -5.4280 hc         1 618       0.052033
     52 H192         0.9280    -4.6270    -6.1460 hc         1 618       0.052033
     53 H193         2.6880    -4.7280    -6.2890 hc         1 618       0.052033
     54 H201         3.5260    -4.0170    -2.7350 hc         1 618       0.052033
     55 H202         3.3390    -5.6210    -3.4510 hc         1 618       0.052033
     56 H203         4.1370    -4.3430    -4.3510 hc         1 618       0.052033
     57 H18         -0.0560    -4.7660    -4.0620 h1         1 618       0.088700
     58 HN23         0.3010    -6.7950    -3.4120 hn         1 618       0.332500
     59 H25          2.8430    -7.2990    -0.5990 ha         1 618       0.173000
     60 H291         3.3110   -10.1110     0.5380 hc         1 618       0.047367
     61 H292         2.4500    -9.2550     1.8060 hc         1 618       0.047367
     62 H293         1.7920   -10.7600     1.1600 hc         1 618       0.047367
     63 H31         -1.8580    -6.7010    -1.9280 ha         1 618       0.159500
     64 H32         -3.9560    -7.0300    -3.1570 ha         1 618       0.139000
     65 H33         -4.5510    -9.2630    -4.0470 ha         1 618       0.134000
     66 H34         -3.0080   -11.1690    -3.7050 ha         1 618       0.139000
     67 H35         -0.8720   -10.8370    -2.5160 ha         1 618       0.159500
@<TRIPOS>BOND
     1     1     2 2   
     2     2     3 1   
     3     2     7 1   
     4     3     4 1   
     5     3     6 1   
     6     3    36 1   
     7     4     5 1   
     8     4    37 1   
     9     5    38 1   
    10     5    39 1   
    11     5    40 1   
    12     6    41 1   
    13     6    42 1   
    14     6    43 1   
    15     7     8 1   
    16     7    44 1   
    17     8     9 1   
    18     8    11 1   
    19     8    45 1   
    20     9    10 2   
    21     9    15 1   
    22    11    12 2   
    23    11    46 1   
    24    12    13 1   
    25    12    47 1   
    26    13    14 1   
    27    13    48 1   
    28    13    49 1   
    29    14    15 1   
    30    14    16 1   
    31    14    50 1   
    32    15    20 1   
    33    16    17 1   
    34    17    18 1   
    35    17    19 1   
    36    17    20 1   
    37    18    51 1   
    38    18    52 1   
    39    18    53 1   
    40    19    54 1   
    41    19    55 1   
    42    19    56 1   
    43    20    21 1   
    44    20    57 1   
    45    21    22 2   
    46    21    23 1   
    47    23    24 1   
    48    23    58 1   
    49    24    25 2   
    50    24    29 1   
    51    25    26 1   
    52    25    59 1   
    53    26    27 1   
    54    26    28 2   
    55    27    60 1   
    56    27    61 1   
    57    27    62 1   
    58    28    29 1   
    59    29    30 1   
    60    30    31 ar  
    61    30    35 ar  
    62    31    32 ar  
    63    31    63 1   
    64    32    33 ar  
    65    32    64 1   
    66    33    34 ar  
    67    33    65 1   
    68    34    35 ar  
    69    34    66 1   
    70    35    67 1   
@<TRIPOS>SUBSTRUCTURE
     1 618         1 TEMP              0 ****  ****    0 ROOT
