@<TRIPOS>MOLECULE
618
   67    70     1     0     0
SMALL
No Charge or Current Charge


@<TRIPOS>ATOM
      1 O6          -3.2210    -0.8560    -1.8070 o          1 618      -0.573100
      2 C5          -2.4940    -0.1120    -2.4540 c          1 618       0.601100
      3 C3          -3.0330     0.8670    -3.5580 c3         1 618       0.099500
      4 N2          -3.6150     0.1470    -4.7380 n7         1 618      -0.851400
      5 C1          -3.9200     0.9550    -5.9380 c3         1 618       0.149100
      6 C4          -4.0670     1.8510    -2.9600 c3         1 618      -0.130100
      7 N7          -1.1280    -0.0850    -2.2610 ns         1 618      -0.513900
      8 C8          -0.4000    -0.8930    -1.2670 c3         1 618       0.086900
      9 C9          -0.3920    -2.4210    -1.6150 c          1 618       0.581000
     10 O15         -1.0990    -3.2060    -0.9930 o          1 618      -0.542000
     11 C14          0.9790    -0.2810    -1.0910 c2         1 618      -0.255200
     12 C13          2.0320    -0.3500    -1.9280 c2         1 618      -0.167200
     13 C12          2.1390    -1.0770    -3.2640 c3         1 618      -0.067200
     14 C11          0.9370    -1.9580    -3.6760 c5         1 618       0.265700
     15 N10          0.4810    -2.8890    -2.6240 n          1 618      -0.392800
     16 S16          1.3740    -2.9900    -5.1470 ss         1 618      -0.415000
     17 C17          1.5750    -4.5120    -4.1220 c5         1 618       0.105000
     18 C19          1.2910    -5.7170    -5.0560 c3         1 618      -0.086100
     19 C20          3.0480    -4.6080    -3.6370 c3         1 618      -0.086100
     20 C18          0.5000    -4.3500    -2.9850 c5         1 618       0.034700
     21 C21          0.8570    -5.3010    -1.7920 c          1 618       0.613100
     22 O22          1.5140    -5.0150    -0.7980 o          1 618      -0.556100
     23 N23          0.3030    -6.5510    -2.0220 ns         1 618      -0.400100
     24 C24          0.4100    -7.7080    -1.2550 cc         1 618       0.003600
     25 C25          1.0760    -7.9130    -0.0810 cd         1 618      -0.220000
     26 C26          0.8930    -9.2730     0.2740 cd         1 618       0.266300
     27 C29          1.4470    -9.9550     1.4930 c3         1 618      -0.119400
     28 N27          0.1570    -9.9450    -0.5940 nc         1 618      -0.510800
     29 N28         -0.1210    -8.9650    -1.5200 na         1 618       0.198000
     30 C30         -0.9190    -9.2500    -2.6300 ca         1 618       0.002800
     31 C31         -2.1270    -8.5520    -2.8370 ca         1 618      -0.108000
     32 C32         -2.9190    -8.8270    -3.9660 ca         1 618      -0.102500
     33 C33         -2.5100    -9.8010    -4.8920 ca         1 618      -0.111000
     34 C34         -1.3100   -10.5030    -4.6890 ca         1 618      -0.102500
     35 C35         -0.5170   -10.2290    -3.5610 ca         1 618      -0.108000
     36 H3          -2.1700     1.4610    -3.8890 h1         1 618       0.061700
     37 HN2         -4.4690    -0.3450    -4.4380 hn         1 618       0.432000
     38 H11A        -4.7230     1.6770    -5.7410 h1         1 618       0.030700
     39 H12         -4.2480     0.3070    -6.7620 h1         1 618       0.030700
     40 H13A        -3.0330     1.5080    -6.2740 h1         1 618       0.030700
     41 H41         -4.9820     1.3270    -2.6580 hc         1 618       0.045700
     42 H42         -3.6510     2.3450    -2.0740 hc         1 618       0.045700
     43 H43         -4.3350     2.6350    -3.6780 hc         1 618       0.045700
     44 HN7         -0.6000     0.5800    -2.8150 hn         1 618       0.317500
     45 H8          -0.9370    -0.8090    -0.3120 h1         1 618       0.090700
     46 H14          1.0800     0.2810    -0.1590 ha         1 618       0.185000
     47 H13          2.9590     0.1580    -1.6490 ha         1 618       0.177000
     48 H121         2.3120    -0.3400    -4.0570 hc         1 618       0.075700
     49 H122         3.0460    -1.6890    -3.2440 hc         1 618       0.075700
     50 H11          0.0830    -1.3310    -3.9540 h2         1 618       0.094700
     51 H191         1.4260    -6.6750    -4.5410 hc         1 618       0.052033
     52 H192         0.2660    -5.6870    -5.4450 hc         1 618       0.052033
     53 H193         1.9680    -5.7150    -5.9190 hc         1 618       0.052033
     54 H201         3.2780    -3.8600    -2.8710 hc         1 618       0.052033
     55 H202         3.2630    -5.5900    -3.1970 hc         1 618       0.052033
     56 H203         3.7500    -4.4640    -4.4680 hc         1 618       0.052033
     57 H18         -0.4950    -4.6270    -3.3580 h1         1 618       0.088700
     58 HN23        -0.2310    -6.6200    -2.8800 hn         1 618       0.332500
     59 H25          1.6470    -7.1860     0.4840 ha         1 618       0.155000
     60 H291         2.1060   -10.7840     1.2120 hc         1 618       0.047367
     61 H292         2.0290    -9.2570     2.1060 hc         1 618       0.047367
     62 H293         0.6410   -10.3570     2.1170 hc         1 618       0.047367
     63 H31         -2.4540    -7.8010    -2.1210 ha         1 618       0.141500
     64 H32         -3.8500    -8.2860    -4.1220 ha         1 618       0.121000
     65 H33         -3.1230   -10.0130    -5.7660 ha         1 618       0.116000
     66 H34         -0.9940   -11.2590    -5.4060 ha         1 618       0.121000
     67 H35          0.4140   -10.7740    -3.4100 ha         1 618       0.141500
@<TRIPOS>BOND
     1     1     2 2   
     2     2     3 1   
     3     2     7 1   
     4     3     4 1   
     5     3     6 1   
     6     3    36 1   
     7     4     5 1   
     8     4    37 1   
     9     5    38 1   
    10     5    39 1   
    11     5    40 1   
    12     6    41 1   
    13     6    42 1   
    14     6    43 1   
    15     7     8 1   
    16     7    44 1   
    17     8     9 1   
    18     8    11 1   
    19     8    45 1   
    20     9    10 2   
    21     9    15 1   
    22    11    12 2   
    23    11    46 1   
    24    12    13 1   
    25    12    47 1   
    26    13    14 1   
    27    13    48 1   
    28    13    49 1   
    29    14    15 1   
    30    14    16 1   
    31    14    50 1   
    32    15    20 1   
    33    16    17 1   
    34    17    18 1   
    35    17    19 1   
    36    17    20 1   
    37    18    51 1   
    38    18    52 1   
    39    18    53 1   
    40    19    54 1   
    41    19    55 1   
    42    19    56 1   
    43    20    21 1   
    44    20    57 1   
    45    21    22 2   
    46    21    23 1   
    47    23    24 1   
    48    23    58 1   
    49    24    25 2   
    50    24    29 1   
    51    25    26 1   
    52    25    59 1   
    53    26    27 1   
    54    26    28 2   
    55    27    60 1   
    56    27    61 1   
    57    27    62 1   
    58    28    29 1   
    59    29    30 1   
    60    30    31 ar  
    61    30    35 ar  
    62    31    32 ar  
    63    31    63 1   
    64    32    33 ar  
    65    32    64 1   
    66    33    34 ar  
    67    33    65 1   
    68    34    35 ar  
    69    34    66 1   
    70    35    67 1   
@<TRIPOS>SUBSTRUCTURE
     1 618         1 TEMP              0 ****  ****    0 ROOT
