@<TRIPOS>MOLECULE
619
   67    71     1     0     0
SMALL
abcg2


@<TRIPOS>ATOM
      1 F30          0.5320    -4.5460     5.0900 f          1 619      -0.179000
      2 C29          0.9220    -4.0450     3.9070 ca         1 619       0.172000
      3 C26          2.1430    -4.4260     3.3860 ca         1 619      -0.153500
      4 C25          2.5380    -3.8990     2.1660 ca         1 619      -0.078500
      5 C28          0.0940    -3.1600     3.2460 ca         1 619      -0.153500
      6 C27          0.5030    -2.6460     2.0260 ca         1 619      -0.078500
      7 C24          1.7290    -3.0050     1.4620 cp         1 619      -0.049000
      8 C22          2.1630    -2.4550     0.1600 cp         1 619      -0.051000
      9 C21          1.8130    -1.1720    -0.2310 ca         1 619      -0.080000
     10 C23          2.9570    -3.2230    -0.7010 ca         1 619      -0.095000
     11 C33          3.4030    -2.7180    -1.9030 ca         1 619       0.092100
     12 O34          4.1680    -3.4870    -2.6980 oh         1 619      -0.534100
     13 C31          3.0510    -1.4130    -2.2930 ca         1 619       0.133100
     14 O32          3.5270    -0.9940    -3.4670 oh         1 619      -0.578100
     15 C20          2.2340    -0.6430    -1.4570 ca         1 619      -0.231600
     16 C18          1.9030     0.7340    -1.9090 c          1 619       0.625700
     17 O19          2.4470     1.2000    -2.9230 o          1 619      -0.657100
     18 N17          1.0250     1.4500    -1.2090 ns         1 619      -0.474900
     19 C16          0.7280     2.8440    -1.5100 c3         1 619       0.131200
     20 C15         -0.5840     3.2280    -0.9020 c2         1 619      -0.212200
     21 C14         -0.6880     4.0780     0.1120 c2         1 619      -0.240200
     22 C6          -1.9470     4.4810     0.8150 c5         1 619       0.191500
     23 C4          -1.8900     4.1080     2.3170 c5         1 619       0.093300
     24 O5          -1.7870     5.2640     3.1030 oh         1 619      -0.705000
     25 C2          -3.2170     3.3500     2.5490 c5         1 619       0.106300
     26 O3          -4.2310     4.2340     2.9280 oh         1 619      -0.698000
     27 O13         -3.1010     3.8540     0.2820 os         1 619      -0.415000
     28 C1          -3.5510     2.8520     1.1470 c5         1 619       0.303300
     29 N10         -2.9210     1.5810     0.8240 na         1 619      -0.307300
     30 C9          -1.7980     1.0090     1.3540 cc         1 619       0.394700
     31 C11         -3.1880     0.8880    -0.3270 ca         1 619       0.140500
     32 N40         -4.1770     1.0890    -1.1950 nb         1 619      -0.212000
     33 C39         -4.1250     0.2320    -2.1990 ca         1 619       0.187900
     34 N38         -3.2350    -0.7340    -2.4200 nb         1 619      -0.295000
     35 C35         -2.2390    -0.9160    -1.5470 ca         1 619       0.447900
     36 C12         -2.2000    -0.0740    -0.4170 ca         1 619      -0.112600
     37 N8          -1.3420     0.0150     0.6490 nd         1 619      -0.582100
     38 N7          -1.3300    -1.8660    -1.7690 nu         1 619      -0.909100
     39 C36         -1.3490    -2.7480    -2.9200 c3         1 619       0.231800
     40 C37         -0.1930    -3.7240    -2.8470 c3         1 619      -0.117100
     41 H26          2.7810    -5.1140     3.9240 ha         1 619       0.132500
     42 H25          3.5060    -4.1820     1.7730 ha         1 619       0.128500
     43 H28         -0.8620    -2.8800     3.6710 ha         1 619       0.132500
     44 H27         -0.1580    -1.9560     1.5140 ha         1 619       0.128500
     45 H21          1.2260    -0.5680     0.4470 ha         1 619       0.127000
     46 H23          3.2280    -4.2390    -0.4400 ha         1 619       0.134000
     47 HO34         4.4080    -3.0060    -3.5000 ho         1 619       0.488000
     48 HO32         3.2460    -0.0440    -3.5550 ho         1 619       0.537000
     49 HN17         0.5810     1.0530    -0.3950 hn         1 619       0.336500
     50 H16          1.5290     3.4880    -1.1360 h1         1 619       0.064200
     51 H16A         0.6880     2.9680    -2.5930 h1         1 619       0.064200
     52 H15         -1.4640     2.7650    -1.3350 ha         1 619       0.200000
     53 H14          0.2100     4.5400     0.5150 ha         1 619       0.178000
     54 H6          -2.0800     5.5650     0.7200 h1         1 619       0.105700
     55 H4          -1.0420     3.4420     2.5080 h1         1 619       0.050700
     56 HO5         -1.4040     5.0280     3.9550 ho         1 619       0.519000
     57 H2          -3.1080     2.5350     3.2730 h1         1 619       0.067700
     58 HO3         -3.8040     4.9970     3.3420 ho         1 619       0.531000
     59 H1          -4.6230     2.7240     1.0000 h2         1 619       0.142700
     60 H9          -1.3560     1.3420     2.2800 h5         1 619       0.059800
     61 H39         -4.9040     0.3240    -2.9470 h5         1 619       0.050100
     62 HN7         -0.5600    -1.9440    -1.1230 hn         1 619       0.513000
     63 H36         -2.2970    -3.2880    -2.9500 h1         1 619       0.056700
     64 H36A        -1.2890    -2.1610    -3.8400 h1         1 619       0.056700
     65 H37          0.7660    -3.2060    -2.8590 hc         1 619       0.047367
     66 H37A        -0.2380    -4.3340    -1.9440 hc         1 619       0.047367
     67 H37B        -0.2180    -4.3930    -3.7060 hc         1 619       0.047367
@<TRIPOS>BOND
     1     1     2 1   
     2     2     3 ar  
     3     2     5 ar  
     4     3     4 ar  
     5     3    41 1   
     6     4     7 ar  
     7     4    42 1   
     8     5     6 ar  
     9     5    43 1   
    10     6     7 ar  
    11     6    44 1   
    12     7     8 1   
    13     8     9 ar  
    14     8    10 ar  
    15     9    15 ar  
    16     9    45 1   
    17    10    11 ar  
    18    10    46 1   
    19    11    12 1   
    20    11    13 ar  
    21    12    47 1   
    22    13    14 1   
    23    13    15 ar  
    24    14    48 1   
    25    15    16 1   
    26    16    17 2   
    27    16    18 1   
    28    18    19 1   
    29    18    49 1   
    30    19    20 1   
    31    19    50 1   
    32    19    51 1   
    33    20    21 2   
    34    20    52 1   
    35    21    22 1   
    36    21    53 1   
    37    22    23 1   
    38    22    27 1   
    39    22    54 1   
    40    23    24 1   
    41    23    25 1   
    42    23    55 1   
    43    24    56 1   
    44    25    26 1   
    45    25    28 1   
    46    25    57 1   
    47    26    58 1   
    48    27    28 1   
    49    28    29 1   
    50    28    59 1   
    51    29    30 1   
    52    29    31 1   
    53    30    37 2   
    54    30    60 1   
    55    31    32 ar  
    56    31    36 ar  
    57    32    33 ar  
    58    33    34 ar  
    59    33    61 1   
    60    34    35 ar  
    61    35    36 ar  
    62    35    38 1   
    63    36    37 1   
    64    38    39 1   
    65    38    62 1   
    66    39    40 1   
    67    39    63 1   
    68    39    64 1   
    69    40    65 1   
    70    40    66 1   
    71    40    67 1   
@<TRIPOS>SUBSTRUCTURE
     1 619         1 TEMP              0 ****  ****    0 ROOT
