@<TRIPOS>MOLECULE
619
   67    71     1     0     0
SMALL
No Charge or Current Charge


@<TRIPOS>ATOM
      1 F30          1.2660    -3.3750     5.9380 f          1 619      -0.179000
      2 C29          1.4610    -3.1220     4.6260 ca         1 619       0.172000
      3 C26          2.6520    -3.5240     4.0060 ca         1 619      -0.153500
      4 C25          2.8550    -3.2600     2.6390 ca         1 619      -0.078500
      5 C28          0.4710    -2.4590     3.8880 ca         1 619      -0.153500
      6 C27          0.6740    -2.1950     2.5220 ca         1 619      -0.078500
      7 C24          1.8690    -2.5900     1.8680 cp         1 619      -0.049000
      8 C22          2.0900    -2.3080     0.4130 cp         1 619      -0.051000
      9 C21          1.6430    -1.0980    -0.1820 ca         1 619      -0.080000
     10 C23          2.7800    -3.2380    -0.4000 ca         1 619      -0.095000
     11 C33          3.0300    -2.9640    -1.7490 ca         1 619       0.092100
     12 O34          3.7050    -3.8700    -2.5190 oh         1 619      -0.534100
     13 C31          2.5970    -1.7520    -2.3210 ca         1 619       0.133100
     14 O32          2.8780    -1.5050    -3.6360 oh         1 619      -0.578100
     15 C20          1.8920    -0.8000    -1.5480 ca         1 619      -0.231600
     16 C18          1.4670     0.5150    -2.1710 c          1 619       0.625700
     17 O19          1.8220     0.8250    -3.3030 o          1 619      -0.657100
     18 N17          0.7010     1.3670    -1.4140 ns         1 619      -0.474900
     19 C16          0.3540     2.7240    -1.8290 c3         1 619       0.131200
     20 C15         -0.6710     3.3380    -0.9030 c2         1 619      -0.212200
     21 C14         -0.6020     3.3950     0.4420 c2         1 619      -0.240200
     22 C6          -1.7260     4.0640     1.2480 c5         1 619       0.191500
     23 C4          -1.8250     3.4190     2.6860 c5         1 619       0.093300
     24 O5          -1.6110     4.3640     3.7560 oh         1 619      -0.705000
     25 C2          -3.2930     2.8810     2.7390 c5         1 619       0.106300
     26 O3          -4.1240     3.8940     3.3190 oh         1 619      -0.698000
     27 O13         -2.9900     3.7890     0.5970 os         1 619      -0.415000
     28 C1          -3.5850     2.6310     1.2210 c5         1 619       0.303300
     29 N10         -3.0510     1.4080     0.5990 na         1 619      -0.307300
     30 C9          -2.3610     0.3810     1.2530 cc         1 619       0.394700
     31 C11         -3.0680     1.0990    -0.7340 ca         1 619       0.140500
     32 N40         -3.5930     1.7250    -1.8060 nb         1 619      -0.212000
     33 C39         -3.3770     1.1240    -3.0000 ca         1 619       0.187900
     34 N38         -2.7010    -0.0300    -3.2180 nb         1 619      -0.295000
     35 C35         -2.1990    -0.6380    -2.1260 ca         1 619       0.447900
     36 C12         -2.3720    -0.0770    -0.8460 ca         1 619      -0.112600
     37 N8          -1.9220    -0.5490     0.3880 nd         1 619      -0.582100
     38 N7          -1.5080    -1.8300    -2.2830 nu         1 619      -0.909100
     39 C36         -0.9140    -2.3530    -3.5180 c3         1 619       0.231800
     40 C37         -0.3560    -3.7630    -3.2720 c3         1 619      -0.117100
     41 H26          3.4180    -4.0340     4.5840 ha         1 619       0.132500
     42 H25          3.7910    -3.5660     2.1780 ha         1 619       0.128500
     43 H28         -0.4530    -2.1530     4.3730 ha         1 619       0.132500
     44 H27         -0.1080    -1.6930     1.9610 ha         1 619       0.128500
     45 H21          1.1330    -0.3770     0.4500 ha         1 619       0.127000
     46 H23          3.1220    -4.1810     0.0180 ha         1 619       0.134000
     47 HO34         3.7750    -3.4660    -3.4140 ho         1 619       0.488000
     48 HO32         2.5540    -0.5750    -3.8030 ho         1 619       0.537000
     49 HN17         0.3670     1.0300    -0.5230 hn         1 619       0.336500
     50 H16          1.2650     3.3370    -1.8380 h1         1 619       0.064200
     51 H16A        -0.0450     2.6920    -2.8520 h1         1 619       0.064200
     52 H15         -1.5230     3.7640    -1.4360 ha         1 619       0.200000
     53 H14          0.2670     2.9830     0.9570 ha         1 619       0.178000
     54 H6          -1.5870     5.1540     1.2970 h1         1 619       0.105700
     55 H4          -1.1230     2.5790     2.7810 h1         1 619       0.050700
     56 HO5         -0.6370     4.5160     3.8300 ho         1 619       0.519000
     57 H2          -3.3660     1.9560     3.3260 h1         1 619       0.067700
     58 HO3         -3.4420     4.4770     3.7500 ho         1 619       0.531000
     59 H1          -4.6670     2.6110     1.0360 h2         1 619       0.142700
     60 H9          -2.1980     0.3700     2.3240 h5         1 619       0.059800
     61 H39         -3.7900     1.6210    -3.8770 h5         1 619       0.050100
     62 HN7         -1.1410    -2.1830    -1.4000 hn         1 619       0.513000
     63 H36         -1.6690    -2.4040    -4.3140 h1         1 619       0.056700
     64 H36A        -0.1060    -1.6920    -3.8600 h1         1 619       0.056700
     65 H37          0.3890    -3.7560    -2.4680 hc         1 619       0.047367
     66 H37A        -1.1600    -4.4540    -2.9930 hc         1 619       0.047367
     67 H37B         0.1240    -4.1430    -4.1810 hc         1 619       0.047367
@<TRIPOS>BOND
     1     1     2 1   
     2     2     3 ar  
     3     2     5 ar  
     4     3     4 ar  
     5     3    41 1   
     6     4     7 ar  
     7     4    42 1   
     8     5     6 ar  
     9     5    43 1   
    10     6     7 ar  
    11     6    44 1   
    12     7     8 1   
    13     8     9 ar  
    14     8    10 ar  
    15     9    15 ar  
    16     9    45 1   
    17    10    11 ar  
    18    10    46 1   
    19    11    12 1   
    20    11    13 ar  
    21    12    47 1   
    22    13    14 1   
    23    13    15 ar  
    24    14    48 1   
    25    15    16 1   
    26    16    17 2   
    27    16    18 1   
    28    18    19 1   
    29    18    49 1   
    30    19    20 1   
    31    19    50 1   
    32    19    51 1   
    33    20    21 2   
    34    20    52 1   
    35    21    22 1   
    36    21    53 1   
    37    22    23 1   
    38    22    27 1   
    39    22    54 1   
    40    23    24 1   
    41    23    25 1   
    42    23    55 1   
    43    24    56 1   
    44    25    26 1   
    45    25    28 1   
    46    25    57 1   
    47    26    58 1   
    48    27    28 1   
    49    28    29 1   
    50    28    59 1   
    51    29    30 1   
    52    29    31 1   
    53    30    37 2   
    54    30    60 1   
    55    31    32 ar  
    56    31    36 ar  
    57    32    33 ar  
    58    33    34 ar  
    59    33    61 1   
    60    34    35 ar  
    61    35    36 ar  
    62    35    38 1   
    63    36    37 1   
    64    38    39 1   
    65    38    62 1   
    66    39    40 1   
    67    39    63 1   
    68    39    64 1   
    69    40    65 1   
    70    40    66 1   
    71    40    67 1   
@<TRIPOS>SUBSTRUCTURE
     1 619         1 TEMP              0 ****  ****    0 ROOT
