@<TRIPOS>MOLECULE
61D
    3     2     1     0     0
SMALL
No Charge or Current Charge


@<TRIPOS>ATOM
      1 I            4.9550     3.3650    27.6330 i          1 61D       0.025800
      2 O            4.1270     3.9350    29.4670 oh         1 61D      -0.479800
      3 H1           4.8370     4.0360    30.1420 ho         1 61D       0.454000
@<TRIPOS>BOND
     1     1     2 1   
     2     2     3 1   
@<TRIPOS>SUBSTRUCTURE
     1 61D         1 TEMP              0 ****  ****    0 ROOT
