@<TRIPOS>MOLECULE
61D
    3     2     1     0     0
SMALL
abcg2


@<TRIPOS>ATOM
      1 I            4.9420     3.3870    27.7100 i          1 61D       0.025800
      2 O            4.1290     3.9290    29.4450 oh         1 61D      -0.479800
      3 H1           4.8480     4.0200    30.0870 ho         1 61D       0.454000
@<TRIPOS>BOND
     1     1     2 1   
     2     2     3 1   
@<TRIPOS>SUBSTRUCTURE
     1 61D         1 TEMP              0 ****  ****    0 ROOT
