@<TRIPOS>MOLECULE
61E
   58    62     1     0     0
SMALL
bcc


@<TRIPOS>ATOM
      1 C26          9.9050     2.4290    -0.0810 c3         1 61E       0.149100
      2 N3           9.2000     1.1690     0.0170 n3         1 61E      -0.712600
      3 C25          9.7640     0.3460     1.0650 c3         1 61E       0.149100
      4 C24          7.7750     1.3840     0.1850 c3         1 61E       0.168800
      5 C23          6.9490     0.1200    -0.0250 c3         1 61E      -0.085400
      6 C22          5.4730     0.4590    -0.0530 c3         1 61E       0.148400
      7 O4           4.7390    -0.7510    -0.1800 os         1 61E      -0.344900
      8 C20          3.3960    -0.7040    -0.1790 ca         1 61E       0.102100
      9 C18          2.6480     0.4590    -0.2070 ca         1 61E      -0.219000
     10 C19          2.7710    -1.9780    -0.1480 ca         1 61E       0.088100
     11 O3           3.5220    -3.1020    -0.1170 oh         1 61E      -0.492100
     12 C17          1.4000    -2.0840    -0.1460 ca         1 61E      -0.071000
     13 C15          0.6250    -0.9190    -0.1770 cp         1 61E      -0.083000
     14 C16          1.2610     0.3300    -0.2070 ca         1 61E      -0.001200
     15 N2           0.3210     1.3350    -0.2350 na         1 61E      -0.060300
     16 C21          0.6350     2.7400    -0.3170 c3         1 61E       0.038600
     17 C14         -0.9200     0.7730    -0.2400 ca         1 61E       0.010800
     18 C1          -2.1580     1.4080    -0.2820 ca         1 61E      -0.146000
     19 C13         -0.7830    -0.6460    -0.1940 cp         1 61E      -0.015000
     20 C4          -1.9620    -1.3710    -0.1820 ca         1 61E      -0.087600
     21 C5          -2.2010    -2.8350    -0.1490 c          1 61E       0.733100
     22 O1          -1.3970    -3.7350    -0.1110 o          1 61E      -0.569500
     23 N1          -3.5700    -2.9860    -0.1730 ns         1 61E      -0.625500
     24 C6          -4.2470    -1.7780    -0.2270 c          1 61E       0.737100
     25 O2          -5.4440    -1.6570    -0.2810 o          1 61E      -0.558500
     26 C3          -3.1960    -0.7360    -0.2160 ca         1 61E      -0.165600
     27 C2          -3.3230     0.6500    -0.2640 cp         1 61E       0.051000
     28 C7          -4.6330     1.3360    -0.3220 cp         1 61E      -0.039000
     29 C12         -4.9990     2.0250    -1.4750 ca         1 61E      -0.104000
     30 C11         -6.2060     2.7030    -1.5560 ca         1 61E      -0.130000
     31 C10         -7.0690     2.7050    -0.4700 ca         1 61E      -0.111000
     32 C9          -6.7220     2.0340     0.6940 ca         1 61E      -0.121000
     33 C8          -5.5130     1.3590     0.7570 ca         1 61E       0.060400
     34 CL1         -5.0890     0.5550     2.2310 cl         1 61E      -0.102400
     35 H26         10.9640     2.2500    -0.2720 h1         1 61E       0.032200
     36 H26A         9.5110     3.0150    -0.9130 h1         1 61E       0.032200
     37 H26B         9.8290     3.0470     0.8280 h1         1 61E       0.032200
     38 H25          9.6500     0.7860     2.0680 h1         1 61E       0.032200
     39 H25A         9.3010    -0.6410     1.0810 h1         1 61E       0.032200
     40 H25B        10.8300     0.1990     0.8850 h1         1 61E       0.032200
     41 H24          7.5420     1.8130     1.1750 h1         1 61E       0.029200
     42 H24A         7.4650     2.1300    -0.5530 h1         1 61E       0.029200
     43 H23          7.2390    -0.3440    -0.9700 hc         1 61E       0.064700
     44 H23A         7.1330    -0.6030     0.7720 hc         1 61E       0.064700
     45 H22          5.1730     0.9740     0.8670 h1         1 61E       0.035700
     46 H22A         5.2530     1.1240    -0.8940 h1         1 61E       0.035700
     47 H18          3.1170     1.4330    -0.2330 ha         1 61E       0.141000
     48 HO3          4.4590    -2.8740    -0.1070 ho         1 61E       0.440000
     49 H17          0.9400    -3.0620    -0.1180 ha         1 61E       0.180000
     50 H21          0.9880     3.0080    -1.3130 h1         1 61E       0.050033
     51 H21A        -0.2460     3.3310    -0.0900 h1         1 61E       0.050033
     52 H21B         1.4040     2.9950     0.4110 h1         1 61E       0.050033
     53 H1          -2.2290     2.4880    -0.3190 ha         1 61E       0.144000
     54 HN1         -4.0310    -3.8850    -0.1710 hn         1 61E       0.346500
     55 H12         -4.3250     2.0200    -2.3220 ha         1 61E       0.136000
     56 H11         -6.4700     3.2280    -2.4650 ha         1 61E       0.136000
     57 H10         -8.0120     3.2320    -0.5190 ha         1 61E       0.136000
     58 H9          -7.3840     2.0410     1.5490 ha         1 61E       0.149000
@<TRIPOS>BOND
     1     1     2 1   
     2     1    35 1   
     3     1    36 1   
     4     1    37 1   
     5     2     3 1   
     6     2     4 1   
     7     3    38 1   
     8     3    39 1   
     9     3    40 1   
    10     4     5 1   
    11     4    41 1   
    12     4    42 1   
    13     5     6 1   
    14     5    43 1   
    15     5    44 1   
    16     6     7 1   
    17     6    45 1   
    18     6    46 1   
    19     7     8 1   
    20     8     9 ar  
    21     8    10 ar  
    22     9    14 ar  
    23     9    47 1   
    24    10    11 1   
    25    10    12 ar  
    26    11    48 1   
    27    12    13 ar  
    28    12    49 1   
    29    13    14 ar  
    30    13    19 1   
    31    14    15 1   
    32    15    16 1   
    33    15    17 1   
    34    16    50 1   
    35    16    51 1   
    36    16    52 1   
    37    17    18 ar  
    38    17    19 ar  
    39    18    27 ar  
    40    18    53 1   
    41    19    20 ar  
    42    20    21 1   
    43    20    26 ar  
    44    21    22 2   
    45    21    23 1   
    46    23    24 1   
    47    23    54 1   
    48    24    25 2   
    49    24    26 1   
    50    26    27 ar  
    51    27    28 1   
    52    28    29 ar  
    53    28    33 ar  
    54    29    30 ar  
    55    29    55 1   
    56    30    31 ar  
    57    30    56 1   
    58    31    32 ar  
    59    31    57 1   
    60    32    33 ar  
    61    32    58 1   
    62    33    34 1   
@<TRIPOS>SUBSTRUCTURE
     1 61E         1 TEMP              0 ****  ****    0 ROOT
