@<TRIPOS>MOLECULE
61E
   58    62     1     0     0
SMALL
No Charge or Current Charge


@<TRIPOS>ATOM
      1 C26         10.2440     2.3030    -0.2660 c3         1 61E       0.149100
      2 N3           9.4380     1.0820    -0.0390 n3         1 61E      -0.712600
      3 C25          9.9680     0.2740     1.0870 c3         1 61E       0.149100
      4 C24          7.9870     1.3850     0.0680 c3         1 61E       0.168800
      5 C23          7.0640     0.1480     0.0550 c3         1 61E      -0.085400
      6 C22          5.5750     0.5300     0.0070 c3         1 61E       0.171600
      7 O4           4.8110    -0.6890     0.0030 os         1 61E      -0.368100
      8 C20          3.4280    -0.6900    -0.0360 ca         1 61E       0.102100
      9 C18          2.6750     0.5080    -0.0730 ca         1 61E      -0.201000
     10 C19          2.7650    -1.9470    -0.0380 ca         1 61E       0.088100
     11 O3           3.5060    -3.0950    -0.0010 oh         1 61E      -0.531100
     12 C17          1.3560    -2.0280    -0.0790 ca         1 61E      -0.053000
     13 C15          0.6060    -0.8330    -0.1160 cp         1 61E      -0.083000
     14 C16          1.2790     0.3920    -0.1090 ca         1 61E      -0.001200
     15 N2           0.2780     1.3730    -0.1480 na         1 61E      -0.089600
     16 C21          0.5580     2.8180    -0.1000 c3         1 61E       0.067900
     17 C14         -1.0180     0.8400    -0.1980 ca         1 61E       0.010800
     18 C1          -2.2770     1.4820    -0.2690 ca         1 61E      -0.128000
     19 C13         -0.8400    -0.5530    -0.1720 cp         1 61E      -0.015000
     20 C4          -2.0200    -1.3240    -0.2210 ca         1 61E      -0.087600
     21 C5          -2.2200    -2.8050    -0.2400 c          1 61E       0.590600
     22 O1          -1.4100    -3.7150    -0.1960 o          1 61E      -0.494000
     23 N1          -3.5790    -2.9330    -0.3250 ns         1 61E      -0.491500
     24 C6          -4.3080    -1.7760    -0.3670 c          1 61E       0.594600
     25 O2          -5.5190    -1.6780    -0.4670 o          1 61E      -0.483000
     26 C3          -3.2660    -0.7130    -0.2870 ca         1 61E      -0.165600
     27 C2          -3.4620     0.6920    -0.3060 cp         1 61E       0.051000
     28 C7          -4.8050     1.3300    -0.3710 cp         1 61E      -0.039000
     29 C12         -5.2020     2.0230    -1.5400 ca         1 61E      -0.086000
     30 C11         -6.4630     2.6370    -1.6220 ca         1 61E      -0.112000
     31 C10         -7.3470     2.5740    -0.5330 ca         1 61E      -0.093000
     32 C9          -6.9660     1.9010     0.6400 ca         1 61E      -0.103000
     33 C8          -5.7050     1.2850     0.7260 ca         1 61E       0.152000
     34 Cl1         -5.2650     0.4870     2.2370 cl         1 61E      -0.194000
     35 H26         11.3000     2.0470    -0.4250 h1         1 61E       0.032200
     36 H26A         9.8920     2.8420    -1.1550 h1         1 61E       0.032200
     37 H26B        10.1800     2.9810     0.5960 h1         1 61E       0.032200
     38 H25          9.8250     0.7930     2.0440 h1         1 61E       0.032200
     39 H25A         9.4730    -0.7030     1.1450 h1         1 61E       0.032200
     40 H25B        11.0430     0.0880     0.9560 h1         1 61E       0.032200
     41 H24          7.7920     1.9610     0.9830 h1         1 61E       0.029200
     42 H24A         7.6940     2.0220    -0.7780 h1         1 61E       0.029200
     43 H23          7.3040    -0.4720    -0.8170 hc         1 61E       0.064700
     44 H23A         7.2400    -0.4590     0.9510 hc         1 61E       0.064700
     45 H22          5.3250     1.1410     0.8840 h1         1 61E       0.035700
     46 H22A         5.3750     1.1160    -0.9000 h1         1 61E       0.035700
     47 H18          3.1440     1.4870    -0.0760 ha         1 61E       0.123000
     48 HO3          4.4500    -2.8210     0.0220 ho         1 61E       0.479000
     49 H17          0.8820    -3.0000    -0.0810 ha         1 61E       0.162000
     50 H21          0.6810     3.2010    -1.1210 h1         1 61E       0.050033
     51 H21A        -0.2680     3.3470     0.3890 h1         1 61E       0.050033
     52 H21B         1.4760     3.0050     0.4700 h1         1 61E       0.050033
     53 H1          -2.3490     2.5660    -0.2900 ha         1 61E       0.126000
     54 HN1         -4.0230    -3.8370    -0.3660 hn         1 61E       0.346500
     55 H12         -4.5240     2.0770    -2.3880 ha         1 61E       0.118000
     56 H11         -6.7550     3.1620    -2.5300 ha         1 61E       0.118000
     57 H10         -8.3240     3.0500    -0.5950 ha         1 61E       0.118000
     58 H9          -7.6460     1.8600     1.4880 ha         1 61E       0.131000
@<TRIPOS>BOND
     1     1     2 1   
     2     1    35 1   
     3     1    36 1   
     4     1    37 1   
     5     2     3 1   
     6     2     4 1   
     7     3    38 1   
     8     3    39 1   
     9     3    40 1   
    10     4     5 1   
    11     4    41 1   
    12     4    42 1   
    13     5     6 1   
    14     5    43 1   
    15     5    44 1   
    16     6     7 1   
    17     6    45 1   
    18     6    46 1   
    19     7     8 1   
    20     8     9 ar  
    21     8    10 ar  
    22     9    14 ar  
    23     9    47 1   
    24    10    11 1   
    25    10    12 ar  
    26    11    48 1   
    27    12    13 ar  
    28    12    49 1   
    29    13    14 ar  
    30    13    19 1   
    31    14    15 1   
    32    15    16 1   
    33    15    17 1   
    34    16    50 1   
    35    16    51 1   
    36    16    52 1   
    37    17    18 ar  
    38    17    19 ar  
    39    18    27 ar  
    40    18    53 1   
    41    19    20 ar  
    42    20    21 1   
    43    20    26 ar  
    44    21    22 2   
    45    21    23 1   
    46    23    24 1   
    47    23    54 1   
    48    24    25 2   
    49    24    26 1   
    50    26    27 ar  
    51    27    28 1   
    52    28    29 ar  
    53    28    33 ar  
    54    29    30 ar  
    55    29    55 1   
    56    30    31 ar  
    57    30    56 1   
    58    31    32 ar  
    59    31    57 1   
    60    32    33 ar  
    61    32    58 1   
    62    33    34 1   
@<TRIPOS>SUBSTRUCTURE
     1 61E         1 TEMP              0 ****  ****    0 ROOT
