@<TRIPOS>MOLECULE
61F
   98   103     1     0     0
SMALL
abcg2


@<TRIPOS>ATOM
      1 C10        105.4670   -63.5260    -1.6510 cp         1 61F      -0.073000
      2 N12        107.5500   -63.5330    -0.1920 na         1 61F       0.080600
      3 C13        107.9900   -62.1680    -0.1090 c3         1 61F       0.042600
      4 C22        110.1410   -66.3170     2.6260 c3         1 61F      -0.348100
      5 C26        105.6220   -66.3330    -1.2080 ca         1 61F       0.205000
      6 C28        104.6400   -65.8070    -2.0140 ca         1 61F      -0.148000
      7 C01        102.5950   -55.0630    -0.9870 c3         1 61F      -0.078100
      8 C02        103.8240   -55.3840    -1.8470 c3         1 61F      -0.123900
      9 C03        103.6740   -54.8150    -3.2680 c3         1 61F      -0.078100
     10 C04        104.1100   -56.8070    -1.8680 c1         1 61F      -0.101100
     11 C06        104.6470   -59.3840    -1.8610 ca         1 61F       0.475000
     12 C07        105.2460   -59.9900    -2.9680 ca         1 61F      -0.125000
     13 C08        105.5270   -61.3440    -2.9120 ca         1 61F      -0.051000
     14 C09        105.2170   -62.0640    -1.7620 cp         1 61F      -0.076000
     15 C11        106.5070   -64.0900    -0.8830 ca         1 61F       0.027800
     16 C14        109.0310   -61.8250    -1.1660 c3         1 61F       0.267000
     17 C19        107.7030   -65.6350     0.2350 cc         1 61F       0.614800
     18 C25        106.5770   -65.4850    -0.6330 ca         1 61F      -0.236900
     19 C29        104.5710   -64.4180    -2.2170 ca         1 61F      -0.050000
     20 C30        104.6040   -61.3720    -0.7030 ca         1 61F       0.337300
     21 C32        104.1970   -62.1070     0.5550 c3         1 61F       0.055400
     22 C33        102.6880   -62.4260     0.5670 c3         1 61F      -0.041100
     23 C34        102.3720   -63.3960     1.6730 ca         1 61F      -0.032300
     24 C35        101.8590   -62.9490     2.8890 ca         1 61F      -0.162000
     25 C36        101.6560   -63.8640     3.9060 ca         1 61F       0.197500
     26 C38        101.9380   -65.2120     3.7800 ca         1 61F      -0.186000
     27 C39        102.4460   -65.6180     2.5580 ca         1 61F       0.197500
     28 C41        102.6690   -64.7510     1.5060 ca         1 61F      -0.162000
     29 C45        105.7320   -61.1430     3.8960 c3         1 61F       0.005600
     30 C48        108.3190   -62.7140     5.6270 cc         1 61F       0.166300
     31 C49        107.2830   -63.5730     6.0480 cc         1 61F      -0.131300
     32 C50        106.1480   -63.0200     5.4910 cd         1 61F      -0.108300
     33 C51        104.7710   -63.5780     5.5690 c6         1 61F      -0.014100
     34 C52        104.7260   -64.6720     6.6470 c6         1 61F      -0.065400
     35 C53        105.9490   -65.5940     6.5810 c6         1 61F      -0.079400
     36 C54        107.2580   -64.8350     6.8550 c6         1 61F       0.009900
     37 C55        109.7730   -62.8500     5.9060 c3         1 61F       0.279700
     38 C60        105.5460   -55.2470     0.4910 c3         1 61F      -0.329100
     39 F15        109.3860   -60.5290    -1.0580 f          1 61F      -0.107667
     40 F16        108.5680   -62.0140    -2.4180 f          1 61F      -0.107667
     41 F17        110.1520   -62.5620    -1.0500 f          1 61F      -0.107667
     42 F37        101.1710   -63.4200     5.0910 f          1 61F      -0.173500
     43 F40        102.7390   -66.9300     2.3930 f          1 61F      -0.173500
     44 F56        110.3270   -63.8970     5.2360 f          1 61F      -0.111000
     45 F57        110.4790   -61.7580     5.5630 f          1 61F      -0.111000
     46 F58        110.0140   -63.0870     7.2190 f          1 61F      -0.111000
     47 N18        108.2750   -64.4780     0.4690 nd         1 61F      -0.525100
     48 N20        108.1860   -66.8060     0.8190 nu         1 61F      -0.837300
     49 N31        104.3270   -60.0740    -0.7530 nb         1 61F      -0.666000
     50 N42        104.5970   -61.4040     1.7590 ns         1 61F      -0.501900
     51 N46        106.5380   -61.9100     4.8110 na         1 61F       0.142800
     52 N47        107.8690   -61.7170     4.8670 nd         1 61F      -0.475800
     53 O23        107.6060   -66.1080     3.2030 o          1 61F      -0.536000
     54 O24        108.5010   -68.3740     2.6920 o          1 61F      -0.536000
     55 O44        106.0680   -63.0000     2.4060 o          1 61F      -0.560100
     56 O61        106.4680   -54.8900    -1.9420 o          1 61F      -0.512000
     57 O62        105.0010   -53.1300    -0.9750 o          1 61F      -0.512000
     58 S21        108.5010   -66.9510     2.4470 s6         1 61F       1.235100
     59 S59        105.3190   -54.5400    -1.1240 s6         1 61F       1.069000
     60 CL27       105.6630   -68.0490    -0.8960 cl         1 61F      -0.183000
     61 H1         108.4310   -62.0010     0.8710 h1         1 61F       0.107200
     62 H2         107.1560   -61.4850    -0.2360 h1         1 61F       0.107200
     63 H3         110.3930   -66.3980     3.6820 h1         1 61F       0.111700
     64 H4         110.8100   -66.9200     2.0140 h1         1 61F       0.111700
     65 H5         110.1400   -65.2780     2.3050 h1         1 61F       0.111700
     66 H6         103.9010   -66.4540    -2.4640 ha         1 61F       0.139000
     67 H7         102.6810   -55.4780     0.0160 hc         1 61F       0.059867
     68 H8         102.4550   -53.9850    -0.9230 hc         1 61F       0.059867
     69 H9         101.7190   -55.5030    -1.4650 hc         1 61F       0.059867
     70 H10        103.5090   -53.7390    -3.2240 hc         1 61F       0.059867
     71 H11        104.5540   -55.0250    -3.8730 hc         1 61F       0.059867
     72 H12        102.8070   -55.2840    -3.7320 hc         1 61F       0.059867
     73 H13        105.4840   -59.4040    -3.8450 ha         1 61F       0.145000
     74 H14        105.9970   -61.8420    -3.7490 ha         1 61F       0.142000
     75 H15        103.7540   -64.0230    -2.8060 ha         1 61F       0.124000
     76 H16        104.7280   -63.0510     0.5890 h1         1 61F       0.102700
     77 H17        102.1230   -61.5010     0.6820 hc         1 61F       0.066200
     78 H18        102.4270   -62.8610    -0.3990 hc         1 61F       0.066200
     79 H19        101.6320   -61.9040     3.0500 ha         1 61F       0.135000
     80 H20        101.7780   -65.9070     4.5920 ha         1 61F       0.155000
     81 H21        103.0820   -65.1240     0.5780 ha         1 61F       0.135000
     82 H22        106.2590   -60.2190     3.6620 h1         1 61F       0.086200
     83 H23        104.7800   -60.8870     4.3620 h1         1 61F       0.086200
     84 H24        104.0400   -62.7950     5.7840 hc         1 61F       0.056700
     85 H25        104.5010   -64.0000     4.5960 hc         1 61F       0.056700
     86 H26        104.6830   -64.2030     7.6350 hc         1 61F       0.042200
     87 H27        103.8100   -65.2520     6.5270 hc         1 61F       0.042200
     88 H28        105.8420   -66.4060     7.3030 hc         1 61F       0.055700
     89 H29        106.0020   -66.0500     5.5880 hc         1 61F       0.055700
     90 H30        108.1180   -65.4630     6.6120 hc         1 61F       0.052700
     91 H31        107.3340   -64.6010     7.9220 hc         1 61F       0.052700
     92 H32        106.4570   -54.7910     0.8760 h1         1 61F       0.106367
     93 H33        104.6970   -54.9920     1.1200 h1         1 61F       0.106367
     94 H34        105.6650   -56.3230     0.3950 h1         1 61F       0.106367
     95 H35        107.9000   -67.6820     0.4020 hn         1 61F       0.520000
     96 H36        104.1470   -60.5310     1.9860 hn         1 61F       0.326500
     97 C43        105.4870   -61.9430     2.6120 c          1 61F       0.561100
     98 C05        104.3480   -57.9880    -1.8670 cg         1 61F      -0.195000
@<TRIPOS>BOND
     1     1    14 1   
     2     1    15 ar  
     3     1    19 ar  
     4     2     3 1   
     5     2    15 1   
     6     2    47 1   
     7     3    16 1   
     8     3    61 1   
     9     3    62 1   
    10     4    58 1   
    11     4    63 1   
    12     4    64 1   
    13     4    65 1   
    14     5     6 ar  
    15     5    18 ar  
    16     5    60 1   
    17     6    19 ar  
    18     6    66 1   
    19     7     8 1   
    20     7    67 1   
    21     7    68 1   
    22     7    69 1   
    23     8     9 1   
    24     8    10 1   
    25     8    59 1   
    26     9    70 1   
    27     9    71 1   
    28     9    72 1   
    29    10    98 3   
    30    11    12 ar  
    31    11    49 ar  
    32    11    98 1   
    33    12    13 ar  
    34    12    73 1   
    35    13    14 ar  
    36    13    74 1   
    37    14    20 ar  
    38    15    18 ar  
    39    16    39 1   
    40    16    40 1   
    41    16    41 1   
    42    17    18 1   
    43    17    47 2   
    44    17    48 1   
    45    19    75 1   
    46    20    21 1   
    47    20    49 ar  
    48    21    22 1   
    49    21    50 1   
    50    21    76 1   
    51    22    23 1   
    52    22    77 1   
    53    22    78 1   
    54    23    24 ar  
    55    23    28 ar  
    56    24    25 ar  
    57    24    79 1   
    58    25    26 ar  
    59    25    42 1   
    60    26    27 ar  
    61    26    80 1   
    62    27    28 ar  
    63    27    43 1   
    64    28    81 1   
    65    29    51 1   
    66    29    82 1   
    67    29    83 1   
    68    29    97 1   
    69    30    31 1   
    70    30    37 1   
    71    30    52 2   
    72    31    32 2   
    73    31    36 1   
    74    32    33 1   
    75    32    51 1   
    76    33    34 1   
    77    33    84 1   
    78    33    85 1   
    79    34    35 1   
    80    34    86 1   
    81    34    87 1   
    82    35    36 1   
    83    35    88 1   
    84    35    89 1   
    85    36    90 1   
    86    36    91 1   
    87    37    44 1   
    88    37    45 1   
    89    37    46 1   
    90    38    59 1   
    91    38    92 1   
    92    38    93 1   
    93    38    94 1   
    94    48    58 1   
    95    48    95 1   
    96    50    96 1   
    97    50    97 1   
    98    51    52 1   
    99    53    58 2   
   100    54    58 2   
   101    55    97 2   
   102    56    59 2   
   103    57    59 2   
@<TRIPOS>SUBSTRUCTURE
     1 61F         1 TEMP              0 ****  ****    0 ROOT
