@<TRIPOS>MOLECULE
61F
   98   103     1     0     0
SMALL
No Charge or Current Charge


@<TRIPOS>ATOM
      1 C10        105.6280   -63.5130    -1.8670 cp         1 61F      -0.073000
      2 N12        107.6100   -63.4920    -0.2920 na         1 61F       0.080600
      3 C13        108.0800   -62.0950    -0.4100 c3         1 61F       0.042600
      4 C22        108.4960   -66.0350     3.2360 c3         1 61F      -0.348100
      5 C26        105.9160   -66.3620    -1.5320 ca         1 61F       0.205000
      6 C28        104.9350   -65.8330    -2.3950 ca         1 61F      -0.148000
      7 C01        102.4720   -55.1250    -2.6260 c3         1 61F      -0.078100
      8 C02        103.8860   -55.3220    -2.0050 c3         1 61F      -0.123900
      9 C03        104.9340   -54.5160    -2.8250 c3         1 61F      -0.078100
     10 C04        104.2370   -56.7540    -2.0480 c1         1 61F      -0.101100
     11 C06        104.7820   -59.3460    -2.0580 ca         1 61F       0.475000
     12 C07        105.3560   -59.9630    -3.1800 ca         1 61F      -0.125000
     13 C08        105.6340   -61.3360    -3.1300 ca         1 61F      -0.051000
     14 C09        105.3370   -62.0540    -1.9510 cp         1 61F      -0.076000
     15 C11        106.6320   -64.1160    -1.0630 ca         1 61F       0.027800
     16 C14        109.0470   -61.8410    -1.5870 c3         1 61F       0.267000
     17 C19        107.7960   -65.5790     0.1070 cc         1 61F       0.614800
     18 C25        106.7490   -65.4530    -0.8690 ca         1 61F      -0.236900
     19 C29        104.7850   -64.4310    -2.5500 ca         1 61F      -0.050000
     20 C30        104.7190   -61.3460    -0.8770 ca         1 61F       0.337300
     21 C32        104.3440   -62.0360     0.4470 c3         1 61F       0.055400
     22 C33        102.8370   -61.9290     0.7890 c3         1 61F      -0.041100
     23 C34        102.4790   -62.6950     2.0580 ca         1 61F      -0.032300
     24 C35        102.2630   -62.0130     3.2710 ca         1 61F      -0.162000
     25 C36        101.9750   -62.7290     4.4430 ca         1 61F       0.197500
     26 C38        101.9010   -64.1280     4.4220 ca         1 61F      -0.186000
     27 C39        102.1170   -64.8100     3.2170 ca         1 61F       0.197500
     28 C41        102.4020   -64.1020     2.0390 ca         1 61F      -0.162000
     29 C45        106.4860   -61.6370     3.6370 c3         1 61F       0.005600
     30 C48        108.9410   -63.3800     5.4890 cc         1 61F       0.166300
     31 C49        107.7980   -63.9990     6.0400 cc         1 61F      -0.131300
     32 C50        106.7160   -63.4400     5.4460 cd         1 61F      -0.108300
     33 C51        105.2820   -63.8210     5.7390 c6         1 61F      -0.014100
     34 C52        105.2040   -64.6450     7.0530 c6         1 61F      -0.065400
     35 C53        106.3310   -65.7150     7.1300 c6         1 61F      -0.079400
     36 C54        107.7470   -65.0720     7.1030 c6         1 61F       0.009900
     37 C55        110.3650   -63.7260     5.9060 c3         1 61F       0.279700
     38 C60        102.7470   -55.7960     0.6440 c3         1 61F      -0.329100
     39 F15        109.2500   -60.5150    -1.7510 f          1 61F      -0.107667
     40 F16        108.5640   -62.3310    -2.7510 f          1 61F      -0.107667
     41 F17        110.2490   -62.4180    -1.3610 f          1 61F      -0.107667
     42 F37        101.7780   -62.0670     5.6030 f          1 61F      -0.173500
     43 F40        102.0520   -66.1590     3.1900 f          1 61F      -0.173500
     44 F56        110.6830   -65.0020     5.5890 f          1 61F      -0.111000
     45 F57        111.2860   -62.9330     5.3080 f          1 61F      -0.111000
     46 F58        110.5420   -63.5900     7.2410 f          1 61F      -0.111000
     47 N18        108.3570   -64.4170     0.4360 nd         1 61F      -0.525100
     48 N20        108.2840   -66.7360     0.5900 nu         1 61F      -0.837300
     49 N31        104.4690   -60.0140    -0.9290 nb         1 61F      -0.666000
     50 N42        105.1730   -61.5590     1.5700 ns         1 61F      -0.501900
     51 N46        107.2430   -62.5170     4.5370 na         1 61F       0.142800
     52 N47        108.6320   -62.4710     4.5730 nd         1 61F      -0.475800
     53 O23        106.3650   -67.1380     2.1050 o          1 61F      -0.536000
     54 O24        108.4910   -68.5050     2.2900 o          1 61F      -0.536000
     55 O44        105.7180   -63.5970     2.4210 o          1 61F      -0.560100
     56 O61        105.2460   -55.0180     0.3190 o          1 61F      -0.512000
     57 O62        103.3890   -53.3780    -0.1910 o          1 61F      -0.512000
     58 S21        107.8250   -67.2180     2.0910 s6         1 61F       1.235100
     59 S59        103.9130   -54.7500    -0.2400 s6         1 61F       1.069000
     60 Cl27       106.0620   -68.1030    -1.3180 cl         1 61F      -0.183000
     61 H1         108.6090   -61.8470     0.5170 h1         1 61F       0.107200
     62 H2         107.2380   -61.4050    -0.4690 h1         1 61F       0.107200
     63 H3         108.2750   -66.3950     4.2440 h1         1 61F       0.111700
     64 H4         109.5740   -65.9780     3.0560 h1         1 61F       0.111700
     65 H5         108.0080   -65.0740     3.0470 h1         1 61F       0.111700
     66 H6         104.2700   -66.5090    -2.9260 ha         1 61F       0.139000
     67 H7         101.7120   -55.7160    -2.1010 hc         1 61F       0.059867
     68 H8         102.1670   -54.0710    -2.5900 hc         1 61F       0.059867
     69 H9         102.4610   -55.4360    -3.6780 hc         1 61F       0.059867
     70 H10        104.7040   -53.4430    -2.8110 hc         1 61F       0.059867
     71 H11        105.9460   -54.6490    -2.4210 hc         1 61F       0.059867
     72 H12        104.9480   -54.8400    -3.8730 hc         1 61F       0.059867
     73 H13        105.5840   -59.3820    -4.0690 ha         1 61F       0.145000
     74 H14        106.0830   -61.8390    -3.9850 ha         1 61F       0.142000
     75 H15        103.9890   -64.0520    -3.1870 ha         1 61F       0.124000
     76 H16        104.5370   -63.1080     0.3250 h1         1 61F       0.102700
     77 H17        102.5600   -60.8730     0.8930 hc         1 61F       0.066200
     78 H18        102.2520   -62.3150    -0.0550 hc         1 61F       0.066200
     79 H19        102.3270   -60.9280     3.3110 ha         1 61F       0.135000
     80 H20        101.6820   -64.6790     5.3310 ha         1 61F       0.155000
     81 H21        102.5760   -64.6490     1.1160 ha         1 61F       0.135000
     82 H22        107.1680   -60.9070     3.1870 h1         1 61F       0.086200
     83 H23        105.7330   -61.0940     4.2180 h1         1 61F       0.086200
     84 H24        104.6450   -62.9300     5.8170 hc         1 61F       0.056700
     85 H25        104.8820   -64.4220     4.9110 hc         1 61F       0.056700
     86 H26        105.2870   -63.9690     7.9140 hc         1 61F       0.042200
     87 H27        104.2190   -65.1260     7.1300 hc         1 61F       0.042200
     88 H28        106.2160   -66.3200     8.0390 hc         1 61F       0.055700
     89 H29        106.2300   -66.4070     6.2820 hc         1 61F       0.055700
     90 H30        108.5010   -65.8510     6.9300 hc         1 61F       0.052700
     91 H31        107.9680   -64.6360     8.0870 hc         1 61F       0.052700
     92 H32        102.7740   -55.4970     1.6960 h1         1 61F       0.106367
     93 H33        101.7520   -55.6320     0.2180 h1         1 61F       0.106367
     94 H34        103.0660   -56.8360     0.5250 h1         1 61F       0.106367
     95 H35        107.9580   -67.5160     0.0440 hn         1 61F       0.520000
     96 H36        105.2600   -60.5570     1.7020 hn         1 61F       0.326500
     97 C43        105.7700   -62.3790     2.5070 c          1 61F       0.561100
     98 C05        104.4910   -57.9430    -2.0590 cg         1 61F      -0.195000
@<TRIPOS>BOND
     1     1    14 1   
     2     1    15 ar  
     3     1    19 ar  
     4     2     3 1   
     5     2    15 1   
     6     2    47 1   
     7     3    16 1   
     8     3    61 1   
     9     3    62 1   
    10     4    58 1   
    11     4    63 1   
    12     4    64 1   
    13     4    65 1   
    14     5     6 ar  
    15     5    18 ar  
    16     5    60 1   
    17     6    19 ar  
    18     6    66 1   
    19     7     8 1   
    20     7    67 1   
    21     7    68 1   
    22     7    69 1   
    23     8     9 1   
    24     8    10 1   
    25     8    59 1   
    26     9    70 1   
    27     9    71 1   
    28     9    72 1   
    29    10    98 3   
    30    11    12 ar  
    31    11    49 ar  
    32    11    98 1   
    33    12    13 ar  
    34    12    73 1   
    35    13    14 ar  
    36    13    74 1   
    37    14    20 ar  
    38    15    18 ar  
    39    16    39 1   
    40    16    40 1   
    41    16    41 1   
    42    17    18 1   
    43    17    47 2   
    44    17    48 1   
    45    19    75 1   
    46    20    21 1   
    47    20    49 ar  
    48    21    22 1   
    49    21    50 1   
    50    21    76 1   
    51    22    23 1   
    52    22    77 1   
    53    22    78 1   
    54    23    24 ar  
    55    23    28 ar  
    56    24    25 ar  
    57    24    79 1   
    58    25    26 ar  
    59    25    42 1   
    60    26    27 ar  
    61    26    80 1   
    62    27    28 ar  
    63    27    43 1   
    64    28    81 1   
    65    29    51 1   
    66    29    82 1   
    67    29    83 1   
    68    29    97 1   
    69    30    31 1   
    70    30    37 1   
    71    30    52 2   
    72    31    32 2   
    73    31    36 1   
    74    32    33 1   
    75    32    51 1   
    76    33    34 1   
    77    33    84 1   
    78    33    85 1   
    79    34    35 1   
    80    34    86 1   
    81    34    87 1   
    82    35    36 1   
    83    35    88 1   
    84    35    89 1   
    85    36    90 1   
    86    36    91 1   
    87    37    44 1   
    88    37    45 1   
    89    37    46 1   
    90    38    59 1   
    91    38    92 1   
    92    38    93 1   
    93    38    94 1   
    94    48    58 1   
    95    48    95 1   
    96    50    96 1   
    97    50    97 1   
    98    51    52 1   
    99    53    58 2   
   100    54    58 2   
   101    55    97 2   
   102    56    59 2   
   103    57    59 2   
@<TRIPOS>SUBSTRUCTURE
     1 61F         1 TEMP              0 ****  ****    0 ROOT
