@<TRIPOS>MOLECULE
61G
   13    12     1     0     0
SMALL
abcg2


@<TRIPOS>ATOM
      1 CAC          0.6910     1.4030     0.0190 c3         1 61G      -0.053900
      2 CAE          0.5380    -0.0890     0.0280 ce         1 61G      -0.083200
      3 CAB          1.5950    -0.9090     0.0400 c2         1 61G      -0.310000
      4 CAD         -0.8120    -0.6550     0.0240 ce         1 61G      -0.181000
      5 CAA         -1.9450     0.0480     0.0120 c2         1 61G      -0.310000
      6 H1           1.7400     1.6930     0.0290 hc         1 61G       0.040367
      7 H2           0.2270     1.8420    -0.8660 hc         1 61G       0.040367
      8 H3           0.2070     1.8560     0.8870 hc         1 61G       0.040367
      9 H5           1.4730    -1.9860     0.0460 ha         1 61G       0.162500
     10 H6           2.6100    -0.5340     0.0440 ha         1 61G       0.162500
     11 H8          -0.8700    -1.7390     0.0300 ha         1 61G       0.168000
     12 H10         -1.9590     1.1300     0.0050 ha         1 61G       0.162000
     13 H11         -2.9070    -0.4470     0.0090 ha         1 61G       0.162000
@<TRIPOS>BOND
     1     1     2 1   
     2     1     6 1   
     3     1     7 1   
     4     1     8 1   
     5     2     3 2   
     6     2     4 1   
     7     3     9 1   
     8     3    10 1   
     9     4     5 2   
    10     4    11 1   
    11     5    12 1   
    12     5    13 1   
@<TRIPOS>SUBSTRUCTURE
     1 61G         1 TEMP              0 ****  ****    0 ROOT
