@<TRIPOS>MOLECULE
61G
   13    12     1     0     0
SMALL
No Charge or Current Charge


@<TRIPOS>ATOM
      1 CAC          0.6960     1.4100     0.0190 c3         1 61G      -0.053900
      2 CAE          0.5380    -0.1030     0.0280 ce         1 61G      -0.083200
      3 CAB          1.6120    -0.9180     0.0410 c2         1 61G      -0.310000
      4 CAD         -0.8240    -0.6650     0.0230 ce         1 61G      -0.181000
      5 CAA         -1.9720     0.0510     0.0110 c2         1 61G      -0.310000
      6 H1           1.7510     1.7110     0.0240 hc         1 61G       0.040367
      7 H2           0.2380     1.8520    -0.8730 hc         1 61G       0.040367
      8 H3           0.2260     1.8640     0.9000 hc         1 61G       0.040367
      9 H5           1.5120    -2.0040     0.0480 ha         1 61G       0.162500
     10 H6           2.6310    -0.5280     0.0450 ha         1 61G       0.162500
     11 H8          -0.8870    -1.7560     0.0300 ha         1 61G       0.168000
     12 H10         -1.9890     1.1410     0.0030 ha         1 61G       0.162000
     13 H11         -2.9440    -0.4430     0.0080 ha         1 61G       0.162000
@<TRIPOS>BOND
     1     1     2 1   
     2     1     6 1   
     3     1     7 1   
     4     1     8 1   
     5     2     3 2   
     6     2     4 1   
     7     3     9 1   
     8     3    10 1   
     9     4     5 2   
    10     4    11 1   
    11     5    12 1   
    12     5    13 1   
@<TRIPOS>SUBSTRUCTURE
     1 61G         1 TEMP              0 ****  ****    0 ROOT
