@<TRIPOS>MOLECULE
61I
   50    54     1     0     0
SMALL
abcg2


@<TRIPOS>ATOM
      1 C10         47.0750    17.7400    25.7650 c5         1 61I      -0.036100
      2 C11         46.2880    19.6190    24.1210 ca         1 61I      -0.152000
      3 C18         53.9100    15.0950    24.6060 cc         1 61I       0.292800
      4 C19         53.9580    14.2770    23.5040 cd         1 61I      -0.473200
      5 C20         55.1600    13.6950    23.0170 c          1 61I       0.696300
      6 C23         56.3320    14.8500    24.7350 ca         1 61I       0.172100
      7 C24         55.1810    15.4820    25.2120 ca         1 61I      -0.140800
      8 C25         55.3320    16.4910    26.1720 ca         1 61I      -0.100000
      9 C26         56.5810    16.7730    26.6690 ca         1 61I       0.135000
     10 C28         57.7150    16.0990    26.2460 ca         1 61I      -0.099000
     11 C1          51.0430    15.1630    26.7830 cy         1 61I      -0.127700
     12 C12         46.3550    20.9830    23.8760 ca         1 61I       0.347900
     13 C14         47.6420    21.3520    25.7010 ca         1 61I       0.455000
     14 C2          49.7960    15.8050    26.1460 cy         1 61I       0.148800
     15 C29         57.5860    15.1390    25.2650 ca         1 61I      -0.114000
     16 C4          50.4540    15.6560    28.1130 cy         1 61I       0.148800
     17 C6          47.5210    17.9590    27.2260 c5         1 61I      -0.060700
     18 C7          48.2720    19.3030    27.2140 c5         1 61I      -0.019100
     19 C8          47.6370    20.0200    26.0650 ca         1 61I      -0.125300
     20 C9          46.9440    19.1380    25.2420 ca         1 61I      -0.049300
     21 F27         56.7100    17.7400    27.5900 f          1 61I      -0.174000
     22 N13         47.0210    21.8360    24.6500 nb         1 61I      -0.658000
     23 N3          49.6040    16.5880    27.3700 nq         1 61I      -0.715600
     24 O21         55.2780    12.9510    22.0690 o          1 61I      -0.499000
     25 O22         56.3020    13.9580    23.7260 os         1 61I      -0.340200
     26 CL15        48.5150    22.4930    26.6840 cl         1 61I      -0.174000
     27 H40         47.8310    17.2140    25.1750 hc         1 61I       0.058700
     28 H41         46.1540    17.1610    25.6890 hc         1 61I       0.058700
     29 H42         45.7340    18.9700    23.4560 ha         1 61I       0.128000
     30 H45         52.2740    16.9150    26.6120 h1         1 61I       0.063700
     31 H44         53.1250    15.4540    27.1140 h1         1 61I       0.063700
     32 H47         53.0440    13.9830    23.0040 ha         1 61I       0.208000
     33 H48         54.4920    17.0760    26.5160 ha         1 61I       0.138000
     34 H49         58.6860    16.3370    26.6610 ha         1 61I       0.140000
     35 H30         51.1320    14.0830    26.6710 hc         1 61I       0.072700
     36 H43         45.8500    21.4120    23.0190 h4         1 61I       0.026100
     37 H31         49.9260    16.3870    25.2280 h1         1 61I       0.052700
     38 H32         49.0020    15.0640    25.9770 h1         1 61I       0.052700
     39 H50         58.4570    14.6190    24.8900 ha         1 61I       0.144000
     40 H34         49.8900    14.8620    28.6190 h1         1 61I       0.052700
     41 H33         51.1350    16.1160    28.8360 h1         1 61I       0.052700
     42 H36         47.6620    15.8990    27.8340 h1         1 61I       0.036700
     43 H35         48.3820    17.0500    28.9480 h1         1 61I       0.036700
     44 H37         46.6060    18.1010    27.8110 hc         1 61I       0.054700
     45 H39         48.1840    19.8410    28.1590 hc         1 61I       0.073200
     46 H38         49.3400    19.1510    27.0270 hc         1 61I       0.073200
     47 H46         51.9460    15.3170    24.4700 hn         1 61I       0.481000
     48 C5          48.2760    16.8140    27.8860 c3         1 61I       0.174800
     49 C16         52.3580    15.8370    26.4410 c3         1 61I       0.232800
     50 N17         52.7300    15.5600    25.0600 nu         1 61I      -0.814200
@<TRIPOS>BOND
     1     1    17 1   
     2     1    20 1   
     3     1    27 1   
     4     1    28 1   
     5     2    12 ar  
     6     2    20 ar  
     7     2    29 1   
     8     3     4 2   
     9     3     7 1   
    10     3    50 1   
    11     4     5 1   
    12     4    32 1   
    13     5    24 2   
    14     5    25 1   
    15     6     7 ar  
    16     6    15 ar  
    17     6    25 1   
    18     7     8 ar  
    19     8     9 ar  
    20     8    33 1   
    21     9    10 ar  
    22     9    21 1   
    23    10    15 ar  
    24    10    34 1   
    25    11    14 1   
    26    11    16 1   
    27    11    35 1   
    28    11    49 1   
    29    12    22 ar  
    30    12    36 1   
    31    13    19 ar  
    32    13    22 ar  
    33    13    26 1   
    34    14    23 1   
    35    14    37 1   
    36    14    38 1   
    37    15    39 1   
    38    16    23 1   
    39    16    40 1   
    40    16    41 1   
    41    17    18 1   
    42    17    44 1   
    43    17    48 1   
    44    18    19 1   
    45    18    45 1   
    46    18    46 1   
    47    19    20 ar  
    48    23    48 1   
    49    30    49 1   
    50    31    49 1   
    51    42    48 1   
    52    43    48 1   
    53    47    50 1   
    54    49    50 1   
@<TRIPOS>SUBSTRUCTURE
     1 61I         1 TEMP              0 ****  ****    0 ROOT
