@<TRIPOS>MOLECULE
61I
   50    54     1     0     0
SMALL
No Charge or Current Charge


@<TRIPOS>ATOM
      1 C10         46.8970    17.8380    25.9950 c5         1 61I      -0.036100
      2 C11         46.2670    19.7830    24.3690 ca         1 61I      -0.152000
      3 C18         53.9070    15.1300    24.5890 cc         1 61I       0.292800
      4 C19         54.0640    14.1280    23.6770 cd         1 61I      -0.473200
      5 C20         55.3560    13.5260    23.3380 c          1 61I       0.696300
      6 C23         56.3780    15.0660    24.8730 ca         1 61I       0.172100
      7 C24         55.1400    15.6690    25.1790 ca         1 61I      -0.140800
      8 C25         55.1420    16.8120    26.0160 ca         1 61I      -0.100000
      9 C26         56.3410    17.2950    26.5650 ca         1 61I       0.135000
     10 C28         57.5590    16.6640    26.2800 ca         1 61I      -0.099000
     11 C1          50.8380    14.9330    26.5040 cy         1 61I      -0.127700
     12 C12         46.5700    21.1000    23.9710 ca         1 61I       0.347900
     13 C14         48.2710    21.2680    25.5400 ca         1 61I       0.455000
     14 C2          49.4830    15.5670    26.0370 cy         1 61I       0.148800
     15 C29         57.5770    15.5510    25.4230 ca         1 61I      -0.114000
     16 C4          50.1810    15.0150    27.9240 cy         1 61I       0.148800
     17 C6          47.6890    18.0370    27.3510 c5         1 61I      -0.060700
     18 C7          48.7350    19.1930    27.0760 c5         1 61I      -0.019100
     19 C8          48.0200    19.9590    25.9930 ca         1 61I      -0.125300
     20 C9          47.0200    19.2170    25.4070 ca         1 61I      -0.049300
     21 F27         56.3200    18.3820    27.3670 f          1 61I      -0.174000
     22 N13         47.5570    21.8400    24.5410 nb         1 61I      -0.658000
     23 N3          49.4870    16.2160    27.3800 nq         1 61I      -0.715600
     24 O21         55.4490    12.6100    22.5370 o          1 61I      -0.499000
     25 O22         56.4410    14.0150    24.0000 os         1 61I      -0.340200
     26 Cl15        49.5480    22.2490    26.2480 cl         1 61I      -0.174000
     27 H40         47.3530    17.0910    25.3390 hc         1 61I       0.058700
     28 H41         45.8580    17.5360    26.1650 hc         1 61I       0.058700
     29 H42         45.4710    19.2280    23.8800 ha         1 61I       0.128000
     30 H45         51.9330    16.7960    26.4740 h1         1 61I       0.063700
     31 H44         52.8720    15.3830    27.0040 h1         1 61I       0.063700
     32 H47         53.2230    13.6760    23.1700 ha         1 61I       0.208000
     33 H48         54.2240    17.3450    26.2380 ha         1 61I       0.138000
     34 H49         58.4840    17.0460    26.7060 ha         1 61I       0.140000
     35 H30         51.0030    13.9060    26.1620 hc         1 61I       0.072700
     36 H43         46.0090    21.5780    23.1690 h4         1 61I       0.026100
     37 H31         49.5610    16.2400    25.1750 h1         1 61I       0.052700
     38 H32         48.6820    14.8340    25.8770 h1         1 61I       0.052700
     39 H50         58.5190    15.0680    25.1760 ha         1 61I       0.144000
     40 H34         49.5250    14.1660    28.1590 h1         1 61I       0.052700
     41 H33         50.8780    15.1940    28.7510 h1         1 61I       0.052700
     42 H36         47.4960    15.9740    28.0200 h1         1 61I       0.036700
     43 H35         48.5150    16.9930    29.0470 h1         1 61I       0.036700
     44 H37         46.9680    18.4130    28.0880 hc         1 61I       0.054700
     45 H39         48.9330    19.7900    27.9740 hc         1 61I       0.073200
     46 H38         49.6970    18.8100    26.7160 hc         1 61I       0.073200
     47 H46         51.9470    15.2550    24.2230 hn         1 61I       0.481000
     48 C5          48.2700    16.7530    28.0030 c3         1 61I       0.174800
     49 C16         52.1300    15.7330    26.2720 c3         1 61I       0.232800
     50 N17         52.6430    15.5570    24.9030 nu         1 61I      -0.814200
@<TRIPOS>BOND
     1     1    17 1   
     2     1    20 1   
     3     1    27 1   
     4     1    28 1   
     5     2    12 ar  
     6     2    20 ar  
     7     2    29 1   
     8     3     4 2   
     9     3     7 1   
    10     3    50 1   
    11     4     5 1   
    12     4    32 1   
    13     5    24 2   
    14     5    25 1   
    15     6     7 ar  
    16     6    15 ar  
    17     6    25 1   
    18     7     8 ar  
    19     8     9 ar  
    20     8    33 1   
    21     9    10 ar  
    22     9    21 1   
    23    10    15 ar  
    24    10    34 1   
    25    11    14 1   
    26    11    16 1   
    27    11    35 1   
    28    11    49 1   
    29    12    22 ar  
    30    12    36 1   
    31    13    19 ar  
    32    13    22 ar  
    33    13    26 1   
    34    14    23 1   
    35    14    37 1   
    36    14    38 1   
    37    15    39 1   
    38    16    23 1   
    39    16    40 1   
    40    16    41 1   
    41    17    18 1   
    42    17    44 1   
    43    17    48 1   
    44    18    19 1   
    45    18    45 1   
    46    18    46 1   
    47    19    20 ar  
    48    23    48 1   
    49    30    49 1   
    50    31    49 1   
    51    42    48 1   
    52    43    48 1   
    53    47    50 1   
    54    49    50 1   
@<TRIPOS>SUBSTRUCTURE
     1 61I         1 TEMP              0 ****  ****    0 ROOT
