@<TRIPOS>MOLECULE
61K
   51    54     1     0     0
SMALL
bcc


@<TRIPOS>ATOM
      1 N1           9.5000    -3.2120    -0.7150 na         1 61K      -0.300900
      2 S1          -7.0960    -2.5180    -0.1130 sy         1 61K       1.275200
      3 N2           8.5290    -2.1340     0.9310 nc         1 61K      -0.670000
      4 N3           4.8250     0.1950     0.0670 ns         1 61K      -0.569900
      5 N4           0.1020     4.5080     0.0230 ns         1 61K      -0.458100
      6 N5          -1.7620     1.5190     0.0550 n2         1 61K      -0.314400
      7 N6          -6.8510    -3.2050    -1.5970 n8         1 61K      -0.890700
      8 N8          -3.0360     1.7740    -0.0630 nu         1 61K      -0.432700
      9 OAB          3.1260    -0.9060     1.0530 o          1 61K      -0.597100
     10 OAC         -2.2020     4.5040    -0.1520 o          1 61K      -0.624500
     11 OAD         -8.4070    -1.8960     0.0140 o          1 61K      -0.617800
     12 OAE         -6.7200    -3.5380     0.8560 o          1 61K      -0.617800
     13 CAF         -5.3080     1.0820    -0.2180 ca         1 61K      -0.193000
     14 CAG         -3.5790    -0.5910     0.0360 ca         1 61K      -0.193000
     15 CAH         -6.2700     0.0900    -0.2360 ca         1 61K       0.006500
     16 CAI         -4.5430    -1.5770     0.0170 ca         1 61K       0.006500
     17 CAJ          3.2720     2.6200     0.3540 ca         1 61K      -0.067000
     18 CAK          2.4730     3.7520     0.2400 ca         1 61K      -0.172000
     19 CAL          9.3560    -3.0990     0.6180 cd         1 61K       0.394400
     20 CAM          8.7150    -2.2580    -1.2960 cd         1 61K      -0.255600
     21 CAN          1.3410     1.1680     0.3190 ca         1 61K      -0.005000
     22 CAO          5.7490    -0.9190     0.1220 c3         1 61K       0.103000
     23 CAW          3.5690     0.1110     0.5340 c          1 61K       0.679700
     24 CAX         -3.9600     0.7490    -0.0810 ca         1 61K       0.230600
     25 CAY          2.7260     1.3350     0.3870 ca         1 61K      -0.180600
     26 CAZ          8.1190    -1.5950    -0.2600 cc         1 61K       0.302600
     27 CBA         -5.8860    -1.2380    -0.1190 ca         1 61K      -0.312500
     28 CBB         -1.1310     3.9320    -0.0360 c          1 61K       0.609200
     29 CBC         -0.8930     2.4660     0.0690 cc         1 61K       0.280900
     30 CBD          1.1080     3.5630     0.1510 ca         1 61K       0.078600
     31 CBE          0.5400     2.2830     0.1880 ca         1 61K      -0.169900
     32 HN3          5.0770     0.9770    -0.5150 hn         1 61K       0.308500
     33 HN4          0.2560     5.5050    -0.0250 hn         1 61K       0.345500
     34 HN6         -7.1940    -2.6250    -2.3560 hn         1 61K       0.415300
     35 HN6A        -7.2690    -4.1290    -1.6510 hn         1 61K       0.415300
     36 HN8         -3.3610     2.7320    -0.1500 hn         1 61K       0.470800
     37 HAF         -5.6070     2.1190    -0.3110 ha         1 61K       0.153000
     38 HAG         -2.5380    -0.8570     0.1460 ha         1 61K       0.153000
     39 HAH         -7.3110     0.3620    -0.3420 ha         1 61K       0.156500
     40 HAI         -4.2390    -2.6120     0.1120 ha         1 61K       0.156500
     41 HAJ          4.3410     2.7620     0.4470 ha         1 61K       0.136000
     42 HAK          2.9110     4.7410     0.2280 ha         1 61K       0.144000
     43 HAL          9.8750    -3.7410     1.3130 h5         1 61K       0.057100
     44 HAM          8.6490    -2.1320    -2.3640 h4         1 61K       0.176000
     45 HAN          0.9050     0.1780     0.3580 ha         1 61K       0.169000
     46 HAO          5.7960    -1.3020     1.1420 h1         1 61K       0.062200
     47 HAOA         5.4040    -1.7400    -0.5140 h1         1 61K       0.062200
     48 HAP          7.0920    -0.0930    -1.3470 hc         1 61K       0.048700
     49 HAPA         7.4710     0.3530     0.3090 hc         1 61K       0.048700
     50 HN1         10.0830    -3.8780    -1.1970 hn         1 61K       0.303700
     51 CAP          7.1380    -0.4740    -0.3240 c3         1 61K      -0.105700
@<TRIPOS>BOND
     1     1    19 1   
     2     1    20 1   
     3     1    50 1   
     4     2     7 1   
     5     2    11 2   
     6     2    12 2   
     7     2    27 1   
     8     3    19 2   
     9     3    26 1   
    10     4    22 1   
    11     4    23 1   
    12     4    32 1   
    13     5    28 1   
    14     5    30 1   
    15     5    33 1   
    16     6     8 1   
    17     6    29 2   
    18     7    34 1   
    19     7    35 1   
    20     8    24 1   
    21     8    36 1   
    22     9    23 2   
    23    10    28 2   
    24    13    15 ar  
    25    13    24 ar  
    26    13    37 1   
    27    14    16 ar  
    28    14    24 ar  
    29    14    38 1   
    30    15    27 ar  
    31    15    39 1   
    32    16    27 ar  
    33    16    40 1   
    34    17    18 ar  
    35    17    25 ar  
    36    17    41 1   
    37    18    30 ar  
    38    18    42 1   
    39    19    43 1   
    40    20    26 2   
    41    20    44 1   
    42    21    25 ar  
    43    21    31 ar  
    44    21    45 1   
    45    22    46 1   
    46    22    47 1   
    47    22    51 1   
    48    23    25 1   
    49    26    51 1   
    50    28    29 1   
    51    29    31 1   
    52    30    31 ar  
    53    48    51 1   
    54    49    51 1   
@<TRIPOS>SUBSTRUCTURE
     1 61K         1 TEMP              0 ****  ****    0 ROOT
