@<TRIPOS>MOLECULE
61K
   51    54     1     0     0
SMALL
No Charge or Current Charge


@<TRIPOS>ATOM
      1 N1           9.9660    -2.9820    -0.5500 na         1 61K      -0.300500
      2 S1          -7.4620    -2.5530     0.0250 sy         1 61K       1.133600
      3 N2           8.7880    -2.1500     1.1360 nc         1 61K      -0.670000
      4 N3           5.0020     0.1410     0.0510 ns         1 61K      -0.502900
      5 N4           0.0850     4.3750    -0.0660 ns         1 61K      -0.391100
      6 N5          -1.7720     1.3720    -0.0190 n2         1 61K      -0.314400
      7 N6          -7.6120    -2.8940    -1.5660 n8         1 61K      -1.001100
      8 N8          -3.1220     1.6160    -0.0330 nu         1 61K      -0.626300
      9 OAB          3.1600    -1.1770     0.0610 o          1 61K      -0.597100
     10 OAC         -2.2350     4.4300    -0.0820 o          1 61K      -0.549000
     11 OAD         -8.7400    -1.9360     0.3730 o          1 61K      -0.547000
     12 OAE         -6.9800    -3.7900     0.6380 o          1 61K      -0.547000
     13 CAF         -5.4690     1.0180    -0.0360 ca         1 61K      -0.175000
     14 CAG         -3.8010    -0.7430     0.0090 ca         1 61K      -0.175000
     15 CAH         -6.4940     0.0560    -0.0230 ca         1 61K       0.024500
     16 CAI         -4.8170    -1.7130     0.0220 ca         1 61K       0.024500
     17 CAJ          3.3350     2.5040    -0.0080 ca         1 61K      -0.049000
     18 CAK          2.5070     3.6470    -0.0360 ca         1 61K      -0.154000
     19 CAL          9.7080    -3.0480     0.8060 cd         1 61K       0.394400
     20 CAM          9.1590    -1.9870    -1.0830 cd         1 61K      -0.223000
     21 CAN          1.3630     1.0370     0.0080 ca         1 61K       0.013000
     22 CAO          5.9880    -0.9420     0.0790 c3         1 61K       0.103000
     23 CAW          3.6390    -0.0510     0.0440 c          1 61K       0.612700
     24 CAX         -4.1200     0.6280    -0.0200 ca         1 61K       0.369000
     25 CAY          2.7750     1.1900     0.0140 ca         1 61K      -0.180600
     26 CAZ          8.4520    -1.5030    -0.0180 cc         1 61K       0.237300
     27 CBA         -6.1680    -1.3150     0.0060 ca         1 61K      -0.312500
     28 CBB         -1.1720     3.8170    -0.0630 c          1 61K       0.466700
     29 CBC         -0.8870     2.3390    -0.0330 cc         1 61K       0.280900
     30 CBD          1.1270     3.4500    -0.0410 ca         1 61K       0.078600
     31 CBE          0.5650     2.1890    -0.0200 ca         1 61K      -0.169900
     32 HN3          5.3340     1.0960     0.0380 hn         1 61K       0.308500
     33 HN4          0.2350     5.3770    -0.0840 hn         1 61K       0.345500
     34 HN6         -7.2250    -2.0620    -2.0030 hn         1 61K       0.470500
     35 HN6A        -8.6170    -2.7910    -1.6910 hn         1 61K       0.470500
     36 HN8         -3.4870     2.5790    -0.0540 hn         1 61K       0.526000
     37 HAF         -5.7310     2.0720    -0.0580 ha         1 61K       0.135000
     38 HAG         -2.7640    -1.0630     0.0220 ha         1 61K       0.135000
     39 HAH         -7.5330     0.3830    -0.0340 ha         1 61K       0.138500
     40 HAI         -4.5490    -2.7690     0.0440 ha         1 61K       0.138500
     41 HAJ          4.4110     2.6570    -0.0040 ha         1 61K       0.118000
     42 HAK          2.9310     4.6490    -0.0530 ha         1 61K       0.126000
     43 HAL         10.2100    -3.7480     1.4650 h5         1 61K       0.057100
     44 HAM          9.1460    -1.7080    -2.1310 h4         1 61K       0.158000
     45 HAN          0.8990     0.0520     0.0240 ha         1 61K       0.151000
     46 HAO          5.8700    -1.5060     1.0140 h1         1 61K       0.062200
     47 HAOA         5.7920    -1.6240    -0.7600 h1         1 61K       0.062200
     48 HAP          7.5250     0.1820    -0.9440 hc         1 61K       0.048700
     49 HAPA         7.6170     0.2810     0.8110 hc         1 61K       0.048700
     50 HN1         10.6310    -3.5660    -1.0460 hn         1 61K       0.354000
     51 CAP          7.4260    -0.4050    -0.0230 c3         1 61K      -0.105700
@<TRIPOS>BOND
     1     1    19 1   
     2     1    20 1   
     3     1    50 1   
     4     2     7 1   
     5     2    11 2   
     6     2    12 2   
     7     2    27 1   
     8     3    19 2   
     9     3    26 1   
    10     4    22 1   
    11     4    23 1   
    12     4    32 1   
    13     5    28 1   
    14     5    30 1   
    15     5    33 1   
    16     6     8 1   
    17     6    29 2   
    18     7    34 1   
    19     7    35 1   
    20     8    24 1   
    21     8    36 1   
    22     9    23 2   
    23    10    28 2   
    24    13    15 ar  
    25    13    24 ar  
    26    13    37 1   
    27    14    16 ar  
    28    14    24 ar  
    29    14    38 1   
    30    15    27 ar  
    31    15    39 1   
    32    16    27 ar  
    33    16    40 1   
    34    17    18 ar  
    35    17    25 ar  
    36    17    41 1   
    37    18    30 ar  
    38    18    42 1   
    39    19    43 1   
    40    20    26 2   
    41    20    44 1   
    42    21    25 ar  
    43    21    31 ar  
    44    21    45 1   
    45    22    46 1   
    46    22    47 1   
    47    22    51 1   
    48    23    25 1   
    49    26    51 1   
    50    28    29 1   
    51    29    31 1   
    52    30    31 ar  
    53    48    51 1   
    54    49    51 1   
@<TRIPOS>SUBSTRUCTURE
     1 61K         1 TEMP              0 ****  ****    0 ROOT
