@<TRIPOS>MOLECULE
61L
   36    37     1     0     0
SMALL
No Charge or Current Charge


@<TRIPOS>ATOM
      1 C01         -2.6990    -1.4180     1.2540 ca         1 61L      -0.094000
      2 C02         -3.8740    -0.8380     0.7580 ca         1 61L      -0.138000
      3 C03         -3.8300    -0.0110    -0.3710 ca         1 61L      -0.097000
      4 C04         -2.6040     0.2630    -1.0060 ca         1 61L      -0.083300
      5 C05         -1.4040    -0.2960    -0.4930 ca         1 61L       0.372000
      6 C06         -1.4590    -1.1700     0.6300 ca         1 61L      -0.110000
      7 S07          0.0200    -2.0050     1.2500 ss         1 61L      -0.116000
      8 N08         -0.1920    -0.0160    -1.1480 nu         1 61L      -1.004000
      9 C09          1.0850     0.3310    -0.6940 ca         1 61L       0.328000
     10 C10          1.3300     1.0750     0.4840 ca         1 61L      -0.147600
     11 C11          2.1700    -0.0880    -1.4850 ca         1 61L      -0.181000
     12 C12          3.4960     0.1840    -1.1050 ca         1 61L      -0.090300
     13 C13          3.7360     0.8990     0.0790 ca         1 61L      -0.161000
     14 C14          2.6620     1.3440     0.8650 ca         1 61L      -0.070000
     15 C15          0.2210     1.6340     1.3250 c          1 61L       0.716600
     16 O16         -0.4790     2.5150     0.8460 o          1 61L      -0.715000
     17 O17          0.2110     1.3500     2.5150 o          1 61L      -0.715000
     18 C18         -0.5760    -3.6260     1.9020 c3         1 61L       0.002900
     19 C19          4.6560    -0.2890    -1.9680 c3         1 61L      -0.029800
     20 C20         -2.5960     1.1780    -2.2310 c3         1 61L      -0.040800
     21 H1          -2.7650    -2.0600     2.1260 ha         1 61L       0.099000
     22 H2          -4.8260    -1.0390     1.2460 ha         1 61L       0.092000
     23 H3          -4.7530     0.4230    -0.7500 ha         1 61L       0.093000
     24 H4          -0.2760    -0.0050    -2.1610 hn         1 61L       0.473000
     25 H5           1.9830    -0.6490    -2.3970 ha         1 61L       0.084000
     26 H6           4.7550     1.1220     0.3870 ha         1 61L       0.085000
     27 H7           2.8610     1.9160     1.7700 ha         1 61L       0.119000
     28 H9          -1.1840    -3.4710     2.8020 h1         1 61L       0.049367
     29 H10         -1.1740    -4.1350     1.1360 h1         1 61L       0.049367
     30 H11          0.2870    -4.2510     2.1620 h1         1 61L       0.049367
     31 H12          4.8900     0.4480    -2.7450 hc         1 61L       0.022033
     32 H13          5.5630    -0.4450    -1.3710 hc         1 61L       0.022033
     33 H14          4.4220    -1.2380    -2.4650 hc         1 61L       0.022033
     34 H15         -1.9380     2.0410    -2.0750 hc         1 61L       0.037700
     35 H16         -2.2470     0.6420    -3.1210 hc         1 61L       0.037700
     36 H17         -3.5960     1.5680    -2.4550 hc         1 61L       0.037700
@<TRIPOS>BOND
     1     1     2 ar  
     2     1     6 ar  
     3     1    21 1   
     4     2     3 ar  
     5     2    22 1   
     6     3     4 ar  
     7     3    23 1   
     8     4     5 ar  
     9     4    20 1   
    10     5     6 ar  
    11     5     8 1   
    12     6     7 1   
    13     7    18 1   
    14     8     9 1   
    15     8    24 1   
    16     9    10 ar  
    17     9    11 ar  
    18    10    14 ar  
    19    10    15 1   
    20    11    12 ar  
    21    11    25 1   
    22    12    13 ar  
    23    12    19 1   
    24    13    14 ar  
    25    13    26 1   
    26    14    27 1   
    27    15    16 1   
    28    15    17 1   
    29    18    28 1   
    30    18    29 1   
    31    18    30 1   
    32    19    31 1   
    33    19    32 1   
    34    19    33 1   
    35    20    34 1   
    36    20    35 1   
    37    20    36 1   
@<TRIPOS>SUBSTRUCTURE
     1 61L         1 TEMP              0 ****  ****    0 ROOT
