@<TRIPOS>MOLECULE
61L
   36    37     1     0     0
SMALL
bcc


@<TRIPOS>ATOM
      1 C01         -2.5900    -1.4200     1.2110 ca         1 61L      -0.112000
      2 C02         -3.7660    -0.8290     0.7830 ca         1 61L      -0.156000
      3 C03         -3.7560     0.0110    -0.3220 ca         1 61L      -0.115000
      4 C04         -2.5730     0.2930    -0.9900 ca         1 61L      -0.083300
      5 C05         -1.3810    -0.3100    -0.5640 ca         1 61L       0.233600
      6 C06         -1.3960    -1.1950     0.5280 ca         1 61L       0.016900
      7 S07          0.1020    -2.0270     0.9570 ss         1 61L      -0.195000
      8 N08         -0.2130    -0.0740    -1.2810 nu         1 61L      -0.672000
      9 C09          1.0340     0.2660    -0.7730 ca         1 61L       0.189600
     10 C10          1.2020     0.9450     0.4430 ca         1 61L      -0.147600
     11 C11          2.1570    -0.1260    -1.5080 ca         1 61L      -0.199000
     12 C12          3.4490     0.1310    -1.0720 ca         1 61L      -0.090300
     13 C13          3.6140     0.7490     0.1660 ca         1 61L      -0.179000
     14 C14          2.5030     1.1320     0.9020 ca         1 61L      -0.088000
     15 C15          0.0750     1.6110     1.2180 c          1 61L       0.927200
     16 O16         -0.7110     2.3030     0.5450 o          1 61L      -0.820300
     17 O17          0.0850     1.4740     2.4560 o          1 61L      -0.820300
     18 C18         -0.4930    -3.4490     1.8980 c3         1 61L      -0.045000
     19 C19          4.6320    -0.2600    -1.9110 c3         1 61L      -0.029800
     20 C20         -2.5470     1.2540    -2.1390 c3         1 61L      -0.040800
     21 H1          -2.6170    -2.0800     2.0670 ha         1 61L       0.117000
     22 H2          -4.6900    -1.0260     1.3110 ha         1 61L       0.110000
     23 H3          -4.6760     0.4750    -0.6550 ha         1 61L       0.111000
     24 H4          -0.2990    -0.0610    -2.2850 hn         1 61L       0.417800
     25 H5           2.0050    -0.6630    -2.4390 ha         1 61L       0.102000
     26 H6           4.6090     0.9390     0.5490 ha         1 61L       0.103000
     27 H7           2.6490     1.6270     1.8540 ha         1 61L       0.137000
     28 H9          -0.8910    -3.1660     2.8700 h1         1 61L       0.049367
     29 H10         -1.2400    -4.0160     1.3450 h1         1 61L       0.049367
     30 H11          0.3790    -4.0810     2.0590 h1         1 61L       0.049367
     31 H12          4.7800     0.4440    -2.7330 hc         1 61L       0.022033
     32 H13          5.5500    -0.2740    -1.3250 hc         1 61L       0.022033
     33 H14          4.5030    -1.2470    -2.3560 hc         1 61L       0.022033
     34 H15         -1.8190     2.0420    -1.9450 hc         1 61L       0.037700
     35 H16         -2.2690     0.7760    -3.0820 hc         1 61L       0.037700
     36 H17         -3.5240     1.7120    -2.2860 hc         1 61L       0.037700
@<TRIPOS>BOND
     1     1     2 ar  
     2     1     6 ar  
     3     1    21 1   
     4     2     3 ar  
     5     2    22 1   
     6     3     4 ar  
     7     3    23 1   
     8     4     5 ar  
     9     4    20 1   
    10     5     6 ar  
    11     5     8 1   
    12     6     7 1   
    13     7    18 1   
    14     8     9 1   
    15     8    24 1   
    16     9    10 ar  
    17     9    11 ar  
    18    10    14 ar  
    19    10    15 1   
    20    11    12 ar  
    21    11    25 1   
    22    12    13 ar  
    23    12    19 1   
    24    13    14 ar  
    25    13    26 1   
    26    14    27 1   
    27    15    16 1   
    28    15    17 1   
    29    18    28 1   
    30    18    29 1   
    31    18    30 1   
    32    19    31 1   
    33    19    32 1   
    34    19    33 1   
    35    20    34 1   
    36    20    35 1   
    37    20    36 1   
@<TRIPOS>SUBSTRUCTURE
     1 61L         1 TEMP              0 ****  ****    0 ROOT
