@<TRIPOS>MOLECULE
61M
   21    21     1     0     0
SMALL
bcc


@<TRIPOS>ATOM
      1 C10         -1.7120     0.5590     0.6940 c3         1 61M      -0.325400
      2 C01          0.9750     1.3080    -0.1060 ca         1 61M      -0.016000
      3 C02          0.7360    -0.0360     0.2280 ca         1 61M      -0.231600
      4 C03          1.8250    -0.9490     0.1750 ca         1 61M       0.242600
      5 C04          3.0920    -0.4570    -0.2060 ca         1 61M      -0.260000
      6 C05          3.2810     0.8670    -0.5220 ca         1 61M      -0.069000
      7 C06          2.2170     1.7710    -0.4750 ca         1 61M      -0.224000
      8 N07          1.7100    -2.2560     0.4990 nv         1 61M      -0.874200
      9 C08         -0.6200    -0.4720     0.6030 c          1 61M       0.639700
     10 O09         -0.8770    -1.6470     0.8400 o          1 61M      -0.615100
     11 C11         -2.2330     0.9560    -0.7140 c          1 61M       0.940600
     12 O12         -2.8420     2.0360    -0.7930 o          1 61M      -0.826800
     13 O13         -2.0130     0.1380    -1.6250 o          1 61M      -0.826800
     14 H101        -2.5450     0.1170     1.2470 hc         1 61M       0.045200
     15 H102        -1.3980     1.4410     1.2550 hc         1 61M       0.045200
     16 H041         3.9260    -1.1470    -0.2450 ha         1 61M       0.108000
     17 H051         4.2690     1.2060    -0.8100 ha         1 61M       0.105000
     18 H061         2.3650     2.8130    -0.7250 ha         1 61M       0.122000
     19 H071         0.7930    -2.6460     0.6230 hn         1 61M       0.432800
     20 H072         2.4680    -2.8790     0.2810 hn         1 61M       0.432800
     21 H011         0.1570     2.0140    -0.0780 ha         1 61M       0.156000
@<TRIPOS>BOND
     1     1     9 1   
     2     1    11 1   
     3     1    14 1   
     4     1    15 1   
     5     2     3 ar  
     6     2     7 ar  
     7     2    21 1   
     8     3     4 ar  
     9     3     9 1   
    10     4     5 ar  
    11     4     8 1   
    12     5     6 ar  
    13     5    16 1   
    14     6     7 ar  
    15     6    17 1   
    16     7    18 1   
    17     8    19 1   
    18     8    20 1   
    19     9    10 2   
    20    11    12 1   
    21    11    13 1   
@<TRIPOS>SUBSTRUCTURE
     1 61M         1 TEMP              0 ****  ****    0 ROOT
