@<TRIPOS>MOLECULE
61M
   21    21     1     0     0
SMALL
No Charge or Current Charge


@<TRIPOS>ATOM
      1 C10         -1.7230     0.4000     0.7340 c3         1 61M      -0.325400
      2 C01          1.0120     1.3610    -0.3130 ca         1 61M       0.002000
      3 C02          0.7710     0.0040     0.0080 ca         1 61M      -0.231600
      4 C03          1.8820    -0.8500     0.1820 ca         1 61M       0.381000
      5 C04          3.1880    -0.3620     0.0370 ca         1 61M      -0.242000
      6 C05          3.4150     0.9840    -0.2830 ca         1 61M      -0.051000
      7 C06          2.3240     1.8430    -0.4570 ca         1 61M      -0.206000
      8 N07          1.7370    -2.1640     0.5090 nv         1 61M      -1.123000
      9 C08         -0.6460    -0.5090     0.1610 c          1 61M       0.639700
     10 O09         -0.9350    -1.6650    -0.1370 o          1 61M      -0.615100
     11 C11         -2.5910     0.8070    -0.4360 c          1 61M       0.730000
     12 O12         -2.2730     1.8000    -1.0670 o          1 61M      -0.721500
     13 O13         -3.5490     0.1050    -0.7150 o          1 61M      -0.721500
     14 H101        -2.3020    -0.2140     1.4330 hc         1 61M       0.045200
     15 H102        -1.2240     1.2730     1.1660 hc         1 61M       0.045200
     16 H041         4.0380    -1.0240     0.1770 ha         1 61M       0.090000
     17 H051         4.4310     1.3580    -0.3930 ha         1 61M       0.087000
     18 H061         2.4920     2.8880    -0.7070 ha         1 61M       0.104000
     19 H071         0.8090    -2.5630     0.3490 hn         1 61M       0.488000
     20 H072         2.5250    -2.7910     0.3640 hn         1 61M       0.488000
     21 H011         0.1910     2.0560    -0.4660 ha         1 61M       0.138000
@<TRIPOS>BOND
     1     1     9 1   
     2     1    11 1   
     3     1    14 1   
     4     1    15 1   
     5     2     3 ar  
     6     2     7 ar  
     7     2    21 1   
     8     3     4 ar  
     9     3     9 1   
    10     4     5 ar  
    11     4     8 1   
    12     5     6 ar  
    13     5    16 1   
    14     6     7 ar  
    15     6    17 1   
    16     7    18 1   
    17     8    19 1   
    18     8    20 1   
    19     9    10 2   
    20    11    12 1   
    21    11    13 1   
@<TRIPOS>SUBSTRUCTURE
     1 61M         1 TEMP              0 ****  ****    0 ROOT
