@<TRIPOS>MOLECULE
61N
   21    22     1     0     0
SMALL
No Charge or Current Charge


@<TRIPOS>ATOM
      1 O20         -3.1950    -1.0360     0.9020 o          1 61N      -0.716500
      2 C11         -2.4060    -0.9690    -0.0300 c          1 61N       0.711600
      3 O21         -2.4160    -1.7410    -0.9790 o          1 61N      -0.716500
      4 C6          -1.4190     0.1770    -0.0440 ca         1 61N      -0.089600
      5 C10         -0.0120    -0.0300    -0.0610 ca         1 61N      -0.044000
      6 C5           0.5500    -1.3290    -0.0370 ca         1 61N      -0.010000
      7 C4           1.9460    -1.5030    -0.0530 ca         1 61N      -0.235000
      8 C3           2.7930    -0.3890    -0.0900 ca         1 61N       0.115100
      9 O2           4.1420    -0.5620    -0.1060 oh         1 61N      -0.555100
     10 C2           2.2530     0.9030    -0.1060 ca         1 61N      -0.170000
     11 C1           0.8570     1.0890    -0.0880 ca         1 61N      -0.013000
     12 C8           0.3350     2.3940    -0.0930 ca         1 61N      -0.156000
     13 C7          -1.0510     2.5980    -0.0650 ca         1 61N      -0.099000
     14 C9          -1.9210     1.4970    -0.0390 ca         1 61N      -0.129000
     15 H2          -0.0820    -2.2130    -0.0010 ha         1 61N       0.157000
     16 H3           2.3590    -2.5090    -0.0360 ha         1 61N       0.094000
     17 H4           4.3270    -1.5250    -0.0890 ho         1 61N       0.451000
     18 H5           2.9180     1.7620    -0.1290 ha         1 61N       0.106000
     19 H6           1.0020     3.2520    -0.1140 ha         1 61N       0.088000
     20 H7          -1.4530     3.6090    -0.0660 ha         1 61N       0.086000
     21 H8          -2.9960     1.6660    -0.0220 ha         1 61N       0.125000
@<TRIPOS>BOND
     1     1     2 1   
     2     2     3 1   
     3     2     4 1   
     4     4     5 ar  
     5     4    14 ar  
     6     5     6 ar  
     7     5    11 ar  
     8     6     7 ar  
     9     6    15 1   
    10     7     8 ar  
    11     7    16 1   
    12     8     9 1   
    13     8    10 ar  
    14     9    17 1   
    15    10    11 ar  
    16    10    18 1   
    17    11    12 ar  
    18    12    13 ar  
    19    12    19 1   
    20    13    14 ar  
    21    13    20 1   
    22    14    21 1   
@<TRIPOS>SUBSTRUCTURE
     1 61N         1 TEMP              0 ****  ****    0 ROOT
