@<TRIPOS>MOLECULE
61N
   21    22     1     0     0
SMALL
abcg2


@<TRIPOS>ATOM
      1 O20         -3.4940    -0.7540     0.6310 o          1 61N      -0.716500
      2 C11         -2.4610    -0.9510    -0.0360 c          1 61N       0.711600
      3 O21         -2.2060    -1.9540    -0.7310 o          1 61N      -0.716500
      4 C6          -1.4300     0.1750    -0.0260 ca         1 61N      -0.089600
      5 C10         -0.0200    -0.0440    -0.0820 ca         1 61N      -0.044000
      6 C5           0.5750    -1.3320    -0.0650 ca         1 61N      -0.010000
      7 C4           1.9310    -1.4990    -0.0720 ca         1 61N      -0.235000
      8 C3           2.7950    -0.3810    -0.1050 ca         1 61N       0.115100
      9 O2           4.1360    -0.5270    -0.1190 oh         1 61N      -0.555100
     10 C2           2.2620     0.8810    -0.1190 ca         1 61N      -0.170000
     11 C1           0.8620     1.0740    -0.1010 ca         1 61N      -0.013000
     12 C8           0.3250     2.3830    -0.0940 ca         1 61N      -0.156000
     13 C7          -1.0270     2.5730    -0.0360 ca         1 61N      -0.099000
     14 C9          -1.8970     1.4680     0.0160 ca         1 61N      -0.129000
     15 H2          -0.0600    -2.2040    -0.0490 ha         1 61N       0.157000
     16 H3           2.3490    -2.5000    -0.0530 ha         1 61N       0.094000
     17 H4           4.3710    -1.4610    -0.0980 ho         1 61N       0.451000
     18 H5           2.9160     1.7460    -0.1360 ha         1 61N       0.106000
     19 H6           1.0010     3.2290    -0.1270 ha         1 61N       0.088000
     20 H7          -1.4350     3.5760    -0.0250 ha         1 61N       0.086000
     21 H8          -2.9630     1.6410     0.0800 ha         1 61N       0.125000
@<TRIPOS>BOND
     1     1     2 1   
     2     2     3 1   
     3     2     4 1   
     4     4     5 ar  
     5     4    14 ar  
     6     5     6 ar  
     7     5    11 ar  
     8     6     7 ar  
     9     6    15 1   
    10     7     8 ar  
    11     7    16 1   
    12     8     9 1   
    13     8    10 ar  
    14     9    17 1   
    15    10    11 ar  
    16    10    18 1   
    17    11    12 ar  
    18    12    13 ar  
    19    12    19 1   
    20    13    14 ar  
    21    13    20 1   
    22    14    21 1   
@<TRIPOS>SUBSTRUCTURE
     1 61N         1 TEMP              0 ****  ****    0 ROOT
