@<TRIPOS>MOLECULE
61O
   23    24     1     0     0
SMALL
No Charge or Current Charge


@<TRIPOS>ATOM
      1 C10          0.9420     0.4750    -0.0820 cp         1 61O      -0.018000
      2 C13          3.7090     0.2150    -0.1030 ca         1 61O       0.308900
      3 C15          1.8050     1.1810     0.7960 ca         1 61O       0.329900
      4 C01         -2.4220     2.2670    -0.1490 ca         1 61O      -0.147000
      5 C02         -1.0420     2.0060    -0.1240 ca         1 61O      -0.125000
      6 C03         -0.5390     0.6830    -0.0430 cp         1 61O      -0.033000
      7 C04         -1.4920    -0.3800     0.0310 ca         1 61O      -0.105600
      8 C05         -2.8770    -0.1150    -0.0020 ca         1 61O      -0.095000
      9 C06         -3.3390     1.2070    -0.0940 ca         1 61O      -0.133000
     10 C07         -0.9780    -1.7950     0.2060 c          1 61O       0.707600
     11 O08         -0.1610    -2.0220     1.0870 o          1 61O      -0.711000
     12 O09         -1.4920    -2.6730    -0.4730 o          1 61O      -0.711000
     13 C11          1.5500    -0.3920    -1.0210 ca         1 61O      -0.032000
     14 C12          2.9490    -0.5230    -1.0250 ca         1 61O      -0.170000
     15 N14          3.1570     1.0590     0.7960 nb         1 61O      -0.692000
     16 H131         4.7950     0.1320    -0.0860 h4         1 61O      -0.005900
     17 H151         1.3910     1.8700     1.5310 h4         1 61O       0.008100
     18 H051        -3.5900    -0.9340     0.0600 ha         1 61O       0.124000
     19 H061        -4.4080     1.4090    -0.1150 ha         1 61O       0.087000
     20 H111         0.9450    -0.9440    -1.7360 ha         1 61O       0.132000
     21 H121         3.4410    -1.1830    -1.7340 ha         1 61O       0.106000
     22 H011        -2.7800     3.2910    -0.2180 ha         1 61O       0.086000
     23 H021        -0.3480     2.8420    -0.1870 ha         1 61O       0.090000
@<TRIPOS>BOND
     1     1     3 ar  
     2     1     6 1   
     3     1    13 ar  
     4     2    14 ar  
     5     2    15 ar  
     6     2    16 1   
     7     3    15 ar  
     8     3    17 1   
     9     4     5 ar  
    10     4     9 ar  
    11     4    22 1   
    12     5     6 ar  
    13     5    23 1   
    14     6     7 ar  
    15     7     8 ar  
    16     7    10 1   
    17     8     9 ar  
    18     8    18 1   
    19     9    19 1   
    20    10    11 1   
    21    10    12 1   
    22    13    14 ar  
    23    13    20 1   
    24    14    21 1   
@<TRIPOS>SUBSTRUCTURE
     1 61O         1 TEMP              0 ****  ****    0 ROOT
