@<TRIPOS>MOLECULE
61O
   23    24     1     0     0
SMALL
abcg2


@<TRIPOS>ATOM
      1 C10          0.9300     0.4580    -0.0650 cp         1 61O      -0.018000
      2 C13          3.6540     0.2690    -0.1100 ca         1 61O       0.308900
      3 C15          1.7690     1.1750     0.7840 ca         1 61O       0.329900
      4 C01         -2.3650     2.2540    -0.1420 ca         1 61O      -0.147000
      5 C02         -1.0060     1.9780    -0.1230 ca         1 61O      -0.125000
      6 C03         -0.5330     0.6670    -0.0300 cp         1 61O      -0.033000
      7 C04         -1.4500    -0.3910     0.0290 ca         1 61O      -0.105600
      8 C05         -2.8110    -0.0990    -0.0270 ca         1 61O      -0.095000
      9 C06         -3.2730     1.2070    -0.0950 ca         1 61O      -0.133000
     10 C07         -1.0310    -1.8450     0.2230 c          1 61O       0.707600
     11 O08         -0.0700    -2.0460     0.9850 o          1 61O      -0.711000
     12 O09         -1.7130    -2.6970    -0.3780 o          1 61O      -0.711000
     13 C11          1.5370    -0.3920    -0.9850 ca         1 61O      -0.032000
     14 C12          2.9170    -0.4880    -1.0100 ca         1 61O      -0.170000
     15 N14          3.0940     1.0860     0.7730 nb         1 61O      -0.692000
     16 H131         4.7370     0.2150    -0.1070 h4         1 61O      -0.005900
     17 H151         1.3390     1.8490     1.5190 h4         1 61O       0.008100
     18 H051        -3.5230    -0.9130     0.0020 ha         1 61O       0.124000
     19 H061        -4.3380     1.4040    -0.1160 ha         1 61O       0.087000
     20 H111         0.9360    -0.9540    -1.6880 ha         1 61O       0.132000
     21 H121         3.4190    -1.1330    -1.7190 ha         1 61O       0.106000
     22 H011        -2.7070     3.2790    -0.2070 ha         1 61O       0.086000
     23 H021        -0.2960     2.7930    -0.1990 ha         1 61O       0.090000
@<TRIPOS>BOND
     1     1     3 ar  
     2     1     6 1   
     3     1    13 ar  
     4     2    14 ar  
     5     2    15 ar  
     6     2    16 1   
     7     3    15 ar  
     8     3    17 1   
     9     4     5 ar  
    10     4     9 ar  
    11     4    22 1   
    12     5     6 ar  
    13     5    23 1   
    14     6     7 ar  
    15     7     8 ar  
    16     7    10 1   
    17     8     9 ar  
    18     8    18 1   
    19     9    19 1   
    20    10    11 1   
    21    10    12 1   
    22    13    14 ar  
    23    13    20 1   
    24    14    21 1   
@<TRIPOS>SUBSTRUCTURE
     1 61O         1 TEMP              0 ****  ****    0 ROOT
