@<TRIPOS>MOLECULE
61P
   70    74     1     0     0
SMALL
No Charge or Current Charge


@<TRIPOS>ATOM
      1 C11          2.3920     2.4390    -0.2670 ce         1 61P       0.375800
      2 C12          1.1030     3.1810    -0.1130 ca         1 61P      -0.135900
      3 C13          1.0460     4.5900    -0.1910 ca         1 61P      -0.060000
      4 C14         -0.1810     5.2570    -0.0420 ca         1 61P      -0.122000
      5 C15         -1.3600     4.5290     0.1860 ca         1 61P      -0.060000
      6 N4          -3.7240     2.8650     0.6580 n2         1 61P      -0.405300
      7 O1          -5.3040     1.6360    -1.3460 o          1 61P      -0.536100
      8 C18         -5.5780     1.4780    -0.1580 c          1 61P       0.625100
      9 C19         -6.8040     0.6130     0.3160 c3         1 61P       0.090500
     10 C20         -6.6130    -0.8760    -0.0770 c3         1 61P      -0.039200
     11 C21         -7.6840    -1.7890     0.4700 cc         1 61P      -0.155400
     12 C28         -8.9140    -2.1660    -0.1700 ca         1 61P      -0.100800
     13 C27         -9.4220    -1.8350    -1.4350 ca         1 61P      -0.068000
     14 C26        -10.6780    -2.3640    -1.8040 ca         1 61P      -0.135000
     15 C25        -11.3870    -3.2050    -0.9150 ca         1 61P      -0.089000
     16 C24        -10.8440    -3.5250     0.3480 ca         1 61P      -0.126000
     17 C23         -9.5960    -2.9840     0.6870 ca         1 61P      -0.047200
     18 N7          -8.8830    -3.1730     1.8560 na         1 61P      -0.219700
     19 C22         -7.6890    -2.4260     1.7080 cd         1 61P      -0.153100
     20 N6          -8.1560     1.1020    -0.1220 n8         1 61P      -0.987200
     21 N5          -4.8330     2.0610     0.8680 ns         1 61P      -0.281900
     22 C16         -1.3220     3.1200     0.2670 ca         1 61P      -0.131900
     23 C29         -0.0860     2.4590     0.1160 ca         1 61P      -0.085000
     24 H1           2.3430     1.3500    -0.1900 h4         1 61P      -0.018200
     25 H4           1.9480     5.1730    -0.3670 ha         1 61P       0.139000
     26 H5          -0.2180     6.3420    -0.1030 ha         1 61P       0.121000
     27 H6          -2.3010     5.0660     0.2980 ha         1 61P       0.140000
     28 H8          -6.8020     0.6460     1.4140 h1         1 61P       0.061700
     29 H9          -6.5700    -0.9640    -1.1690 hc         1 61P       0.057700
     30 H10         -5.6350    -1.2130     0.2900 hc         1 61P       0.057700
     31 H11         -8.8680    -1.1930    -2.1160 ha         1 61P       0.116000
     32 H12        -11.1000    -2.1250    -2.7770 ha         1 61P       0.114000
     33 H13        -12.3540    -3.6100    -1.2070 ha         1 61P       0.113000
     34 H14        -11.3800    -4.1750     1.0360 ha         1 61P       0.115000
     35 H15         -9.1590    -3.7350     2.6560 hn         1 61P       0.352000
     36 H16         -6.9370    -2.3950     2.4930 h4         1 61P       0.210000
     37 H17         -8.1780     1.1530    -1.1480 hn         1 61P       0.414500
     38 H18         -8.8380     0.3600     0.0870 hn         1 61P       0.414500
     39 H20         -5.1620     1.8750     1.8110 hn         1 61P       0.301500
     40 H21         -2.4350     1.2290     0.5530 h4         1 61P      -0.019200
     41 H23         -0.0490     1.3730     0.1770 ha         1 61P       0.105000
     42 N1           3.5190     3.0470    -0.4810 n2         1 61P      -0.410300
     43 N2           4.6820     2.3030    -0.6040 ns         1 61P      -0.280900
     44 C3           5.4600     1.8880     0.4780 c          1 61P       0.625100
     45 C4           6.7440     1.0600     0.1000 c3         1 61P       0.089500
     46 O2           5.1670     2.1540     1.6420 o          1 61P      -0.536100
     47 N3           8.0590     1.6930     0.4650 n8         1 61P      -0.987200
     48 C7           6.6650    -0.3760     0.6800 c3         1 61P      -0.061200
     49 C8           7.7890    -1.2730     0.2300 cc         1 61P      -0.082300
     50 N8           8.8350    -1.7500     1.0480 na         1 61P      -0.226700
     51 C2           8.0460    -1.8250    -1.0160 cd         1 61P      -0.226200
     52 C6           9.2390    -2.6300    -0.9770 ca         1 61P      -0.100800
     53 C9           9.6900    -2.5540     0.3100 ca         1 61P      -0.044200
     54 C5          10.8490    -3.2260     0.7190 ca         1 61P      -0.129000
     55 C10          9.8980    -3.3750    -1.9630 ca         1 61P      -0.059000
     56 C30         11.0700    -4.0640    -1.5800 ca         1 61P      -0.139000
     57 C1          11.5430    -3.9900    -0.2460 ca         1 61P      -0.087000
     58 H2           5.0280     2.0380    -1.5230 hn         1 61P       0.303500
     59 H3           6.7350     0.9580    -0.9950 h1         1 61P       0.072700
     60 H7           8.1000     1.8220     1.4850 hn         1 61P       0.413500
     61 H19          8.8070     1.0120     0.2830 hn         1 61P       0.413500
     62 H22          6.6410    -0.3260     1.7760 hc         1 61P       0.066700
     63 H24          5.7110    -0.8260     0.3780 hc         1 61P       0.066700
     64 H25          8.9430    -1.5470     2.0360 hn         1 61P       0.348000
     65 H26          7.4270    -1.6690    -1.8970 ha         1 61P       0.202000
     66 H27         11.2040    -3.1640     1.7450 ha         1 61P       0.114000
     67 H28          9.5210    -3.4220    -2.9820 ha         1 61P       0.114000
     68 H29         11.6120    -4.6540    -2.3150 ha         1 61P       0.112000
     69 H30         12.4480    -4.5250     0.0370 ha         1 61P       0.112000
     70 C17         -2.5580     2.3140     0.5080 ce         1 61P       0.367800
@<TRIPOS>BOND
     1     1     2 1   
     2     1    24 1   
     3     1    42 2   
     4     2     3 ar  
     5     2    23 ar  
     6     3     4 ar  
     7     3    25 1   
     8     4     5 ar  
     9     4    26 1   
    10     5    22 ar  
    11     5    27 1   
    12     6    21 1   
    13     6    70 2   
    14     7     8 2   
    15     8     9 1   
    16     8    21 1   
    17     9    10 1   
    18     9    20 1   
    19     9    28 1   
    20    10    11 1   
    21    10    29 1   
    22    10    30 1   
    23    11    12 1   
    24    11    19 2   
    25    12    13 ar  
    26    12    17 ar  
    27    13    14 ar  
    28    13    31 1   
    29    14    15 ar  
    30    14    32 1   
    31    15    16 ar  
    32    15    33 1   
    33    16    17 ar  
    34    16    34 1   
    35    17    18 1   
    36    18    19 1   
    37    18    35 1   
    38    19    36 1   
    39    20    37 1   
    40    20    38 1   
    41    21    39 1   
    42    22    23 ar  
    43    22    70 1   
    44    23    41 1   
    45    40    70 1   
    46    42    43 1   
    47    43    44 1   
    48    43    58 1   
    49    44    45 1   
    50    44    46 2   
    51    45    47 1   
    52    45    48 1   
    53    45    59 1   
    54    47    60 1   
    55    47    61 1   
    56    48    49 1   
    57    48    62 1   
    58    48    63 1   
    59    49    50 1   
    60    49    51 2   
    61    50    53 1   
    62    50    64 1   
    63    51    52 1   
    64    51    65 1   
    65    52    53 ar  
    66    52    55 ar  
    67    53    54 ar  
    68    54    57 ar  
    69    54    66 1   
    70    55    56 ar  
    71    55    67 1   
    72    56    57 ar  
    73    56    68 1   
    74    57    69 1   
@<TRIPOS>SUBSTRUCTURE
     1 61P         1 TEMP              0 ****  ****    0 ROOT
