@<TRIPOS>MOLECULE
61P
   70    74     1     0     0
SMALL
bcc


@<TRIPOS>ATOM
      1 C11          2.3980     1.1690    -0.4080 ce         1 61P       0.375800
      2 C12          1.1380     1.8770    -0.2030 ca         1 61P      -0.135900
      3 C13          1.0670     3.2700    -0.1360 ca         1 61P      -0.078000
      4 C14         -0.1560     3.8920     0.0630 ca         1 61P      -0.140000
      5 C15         -1.3160     3.1460     0.2010 ca         1 61P      -0.078000
      6 N4          -3.5990     1.4310     0.4580 n2         1 61P      -0.405300
      7 O1          -6.1540     2.2640     0.8460 o          1 61P      -0.536100
      8 C18         -5.8970     1.0790     0.7880 c          1 61P       0.692100
      9 C19         -6.9670     0.0030     0.8610 c3         1 61P       0.090500
     10 C20         -7.4920    -0.2620    -0.5700 c3         1 61P      -0.039200
     11 C21         -8.5490    -1.3150    -0.5960 cc         1 61P      -0.155400
     12 C28         -9.9620    -1.1390    -0.4190 ca         1 61P      -0.100800
     13 C27        -10.7860    -0.0230    -0.2250 ca         1 61P      -0.086000
     14 C26        -12.1490    -0.2110    -0.0980 ca         1 61P      -0.153000
     15 C25        -12.7130    -1.4960    -0.1580 ca         1 61P      -0.107000
     16 C24        -11.9270    -2.6160    -0.3490 ca         1 61P      -0.144000
     17 C23        -10.5520    -2.4220    -0.4790 ca         1 61P      -0.047200
     18 N7          -9.5470    -3.3210    -0.6790 na         1 61P      -0.169400
     19 C22         -8.3550    -2.6600    -0.7500 cd         1 61P      -0.103100
     20 N6          -7.9610     0.4120     1.8280 n8         1 61P      -0.876800
     21 N5          -4.6390     0.5960     0.6050 ns         1 61P      -0.348900
     22 C16         -1.2610     1.7520     0.1360 ca         1 61P      -0.131900
     23 C29         -0.0310     1.1320    -0.0680 ca         1 61P      -0.103000
     24 H1           2.3400     0.0810    -0.4990 h4         1 61P      -0.018200
     25 H4           1.9650     3.8630    -0.2420 ha         1 61P       0.157000
     26 H5          -0.2050     4.9710     0.1130 ha         1 61P       0.139000
     27 H6          -2.2640     3.6420     0.3620 ha         1 61P       0.158000
     28 H8          -6.5210    -0.9300     1.2220 h1         1 61P       0.061700
     29 H9          -7.8790     0.6740    -0.9840 hc         1 61P       0.057700
     30 H10         -6.6570    -0.5620    -1.2090 hc         1 61P       0.057700
     31 H11        -10.3670     0.9750    -0.1760 ha         1 61P       0.134000
     32 H12        -12.7960     0.6440     0.0520 ha         1 61P       0.132000
     33 H13        -13.7840    -1.6110    -0.0550 ha         1 61P       0.131000
     34 H14        -12.3620    -3.6070    -0.3970 ha         1 61P       0.133000
     35 H15         -9.6610    -4.3160    -0.7730 hn         1 61P       0.301700
     36 H16         -7.4370    -3.2040    -0.9140 h4         1 61P       0.160000
     37 H17         -8.4230     1.2590     1.5190 hn         1 61P       0.359300
     38 H18         -8.6790    -0.3000     1.8950 hn         1 61P       0.359300
     39 H20         -4.4870    -0.4070     0.5790 hn         1 61P       0.301500
     40 H21         -2.2960    -0.1650     0.2480 h4         1 61P      -0.019200
     41 H23          0.0190     0.0500    -0.1170 ha         1 61P       0.123000
     42 N1           3.5010     1.7960    -0.4730 n2         1 61P      -0.410300
     43 N2           4.6180     1.0770    -0.6720 ns         1 61P      -0.347900
     44 C3           5.8320     1.6860    -0.7140 c          1 61P       0.692100
     45 C4           7.0020     0.7250    -0.8570 c3         1 61P       0.089500
     46 O2           5.9830     2.8850    -0.6010 o          1 61P      -0.536100
     47 N3           8.0150     1.3550    -1.6720 n8         1 61P      -0.876800
     48 C7           7.4530     0.3070     0.5650 c3         1 61P      -0.061200
     49 C8           8.6140    -0.6230     0.5230 cc         1 61P      -0.082300
     50 N8           9.9010    -0.1620     0.6080 na         1 61P      -0.176400
     51 C2           8.6390    -1.9790     0.3390 cd         1 61P      -0.176200
     52 C6          10.0110    -2.3770     0.3160 ca         1 61P      -0.100800
     53 C9          10.7770    -1.2020     0.4920 ca         1 61P      -0.044200
     54 C5          12.1700    -1.2200     0.5290 ca         1 61P      -0.147000
     55 C10         10.6740    -3.6020     0.1670 ca         1 61P      -0.077000
     56 C30         12.0540    -3.6240     0.2000 ca         1 61P      -0.157000
     57 C1          12.7950    -2.4440     0.3800 ca         1 61P      -0.105000
     58 H2           4.5540     0.0710    -0.7850 hn         1 61P       0.303500
     59 H3           6.6710    -0.1790    -1.3770 h1         1 61P       0.072700
     60 H7           8.3830     2.1740    -1.2030 hn         1 61P       0.358300
     61 H19          8.7920     0.7210    -1.8050 hn         1 61P       0.358300
     62 H22          7.7100     1.2030     1.1380 hc         1 61P       0.066700
     63 H24          6.6240    -0.1770     1.0850 hc         1 61P       0.066700
     64 H25         10.1590     0.7980     0.7730 hn         1 61P       0.297700
     65 H26          7.7750    -2.6160     0.2340 ha         1 61P       0.152000
     66 H27         12.7420    -0.3120     0.6680 ha         1 61P       0.132000
     67 H28         10.1120    -4.5170     0.0250 ha         1 61P       0.132000
     68 H29         12.5780    -4.5640     0.0830 ha         1 61P       0.130000
     69 H30         13.8760    -2.4940     0.4010 ha         1 61P       0.130000
     70 C17         -2.4500     0.9160     0.2860 ce         1 61P       0.367800
@<TRIPOS>BOND
     1     1     2 1   
     2     1    24 1   
     3     1    42 2   
     4     2     3 ar  
     5     2    23 ar  
     6     3     4 ar  
     7     3    25 1   
     8     4     5 ar  
     9     4    26 1   
    10     5    22 ar  
    11     5    27 1   
    12     6    21 1   
    13     6    70 2   
    14     7     8 2   
    15     8     9 1   
    16     8    21 1   
    17     9    10 1   
    18     9    20 1   
    19     9    28 1   
    20    10    11 1   
    21    10    29 1   
    22    10    30 1   
    23    11    12 1   
    24    11    19 2   
    25    12    13 ar  
    26    12    17 ar  
    27    13    14 ar  
    28    13    31 1   
    29    14    15 ar  
    30    14    32 1   
    31    15    16 ar  
    32    15    33 1   
    33    16    17 ar  
    34    16    34 1   
    35    17    18 1   
    36    18    19 1   
    37    18    35 1   
    38    19    36 1   
    39    20    37 1   
    40    20    38 1   
    41    21    39 1   
    42    22    23 ar  
    43    22    70 1   
    44    23    41 1   
    45    40    70 1   
    46    42    43 1   
    47    43    44 1   
    48    43    58 1   
    49    44    45 1   
    50    44    46 2   
    51    45    47 1   
    52    45    48 1   
    53    45    59 1   
    54    47    60 1   
    55    47    61 1   
    56    48    49 1   
    57    48    62 1   
    58    48    63 1   
    59    49    50 1   
    60    49    51 2   
    61    50    53 1   
    62    50    64 1   
    63    51    52 1   
    64    51    65 1   
    65    52    53 ar  
    66    52    55 ar  
    67    53    54 ar  
    68    54    57 ar  
    69    54    66 1   
    70    55    56 ar  
    71    55    67 1   
    72    56    57 ar  
    73    56    68 1   
    74    57    69 1   
@<TRIPOS>SUBSTRUCTURE
     1 61P         1 TEMP              0 ****  ****    0 ROOT
