@<TRIPOS>MOLECULE
61Q
  126   133     1     0     0
SMALL
bcc


@<TRIPOS>ATOM
      1 NAB          6.1030    -7.6570    -3.1910 n8         1 61Q      -0.886800
      2 CAF          4.8030    -7.0170    -3.3230 c3         1 61Q       0.147800
      3 CAD          4.9010    -5.5370    -2.9830 c3         1 61Q      -0.084400
      4 CAA          3.5550    -4.8560    -3.1010 c3         1 61Q       0.139400
      5 OAW          3.7180    -3.4900    -2.7410 os         1 61Q      -0.328900
      6 CCR          2.6370    -2.7210    -2.6150 ca         1 61Q       0.150100
      7 CCQ          1.3480    -3.1290    -2.8500 ca         1 61Q      -0.304300
      8 CCP          0.2880    -2.2240    -2.6470 ca         1 61Q       0.399800
      9 COW         -1.1470    -2.6720    -2.9640 c          1 61Q       0.818100
     10 OAX         -2.0500    -1.8500    -2.7420 o          1 61Q      -0.805300
     11 OBI         -1.2610    -3.8210    -3.4320 o          1 61Q      -0.805300
     12 NBH          0.4780    -1.0020    -2.2170 nb         1 61Q      -0.689000
     13 CCO          1.7400    -0.5770    -2.0050 ca         1 61Q       0.385600
     14 CCS          2.8780    -1.3780    -2.2100 ca         1 61Q      -0.151300
     15 CCT          4.1640    -0.8330    -2.0100 ca         1 61Q      -0.102000
     16 CCU          4.2890     0.4740    -1.6220 ca         1 61Q      -0.135000
     17 CCV          3.1660     1.2850    -1.3770 ca         1 61Q      -0.175000
     18 CCN          1.9040     0.7650    -1.5380 ca         1 61Q       0.007300
     19 NBG          0.7110     1.4010    -1.2450 ns         1 61Q      -0.432100
     20 CCM          0.4620     2.6470    -0.8060 c          1 61Q       0.573600
     21 OAV          1.2700     3.5570    -0.7310 o          1 61Q      -0.627100
     22 CCF         -0.9800     2.8260    -0.4110 ca         1 61Q       0.388800
     23 CCG         -1.4720     4.1110    -0.1510 ca         1 61Q      -0.320300
     24 CCH         -2.8070     4.2410     0.1620 ca         1 61Q       0.170100
     25 OAU         -3.4110     5.3910     0.4320 os         1 61Q      -0.318900
     26 CAH         -2.6540     6.5990     0.4270 c3         1 61Q       0.139400
     27 CAK         -3.5730     7.7280     0.8370 c3         1 61Q      -0.085400
     28 CAL         -2.8180     9.0470     0.9290 c3         1 61Q       0.149800
     29 NAE         -3.7210    10.1210     1.3120 n8         1 61Q      -0.882800
     30 NBF         -1.7030     1.7400    -0.3320 nb         1 61Q      -0.672000
     31 CCE         -3.0050     1.8420    -0.0180 ca         1 61Q       0.377600
     32 CCI         -3.6340     3.0820     0.2130 ca         1 61Q      -0.119300
     33 CCJ         -5.0160     3.1190     0.4840 ca         1 61Q      -0.153000
     34 CCK         -5.7210     1.9460     0.5170 ca         1 61Q      -0.080000
     35 CCL         -5.1040     0.6960     0.3290 ca         1 61Q      -0.166000
     36 CCD         -3.7510     0.6260     0.0940 ca         1 61Q       0.077300
     37 NBE         -2.9970    -0.5280    -0.0060 ns         1 61Q      -0.418100
     38 CCC         -3.3780    -1.8200     0.0440 c          1 61Q       0.613600
     39 OAR         -4.5310    -2.2160     0.0780 o          1 61Q      -0.601100
     40 CBV         -2.2160    -2.7740     0.0650 ca         1 61Q       0.457800
     41 CBW         -2.4210    -4.0980    -0.3450 ca         1 61Q      -0.286300
     42 CBX         -1.3320    -4.9340    -0.4110 ca         1 61Q       0.211100
     43 OAN         -1.3620    -6.1880    -0.8430 os         1 61Q      -0.317900
     44 CAM         -2.5540    -6.6880    -1.4400 c3         1 61Q       0.137400
     45 CAO         -2.2700    -8.0830    -1.9510 c3         1 61Q      -0.081400
     46 CAP         -3.5140    -8.7100    -2.5670 c3         1 61Q       0.148800
     47 NAG         -3.2190   -10.0480    -3.0550 n8         1 61Q      -0.889800
     48 NBD         -1.0630    -2.2980     0.4510 nb         1 61Q      -0.708000
     49 CBU          0.0100    -3.1100     0.4230 ca         1 61Q       0.404600
     50 CBY         -0.0550    -4.4510    -0.0030 ca         1 61Q      -0.131300
     51 CBZ          1.1190    -5.2280    -0.0470 ca         1 61Q      -0.117000
     52 CCA          2.3120    -4.6610     0.3140 ca         1 61Q      -0.126000
     53 CCB          2.4010    -3.3240     0.7380 ca         1 61Q      -0.155000
     54 CBT          1.2660    -2.5500     0.8080 ca         1 61Q       0.024300
     55 NBC          1.2040    -1.2350     1.2360 ns         1 61Q      -0.424100
     56 CBS          2.2030    -0.3900     1.5530 c          1 61Q       0.577600
     57 OAJ          3.3920    -0.6460     1.5410 o          1 61Q      -0.590100
     58 CBQ          1.6990     0.9740     1.9560 ca         1 61Q       0.442800
     59 CBR          2.6010     2.0440     1.9610 ca         1 61Q      -0.315300
     60 NBB          0.4350     1.0580     2.2780 nb         1 61Q      -0.674000
     61 CBP         -0.0460     2.2520     2.6610 ca         1 61Q       0.476600
     62 CBO         -1.4010     2.3890     3.0690 ca         1 61Q      -0.226500
     63 NBA         -2.2430     1.2210     3.2650 no         1 61Q       0.320200
     64 OAY         -1.7340     0.2100     3.6830 o          1 61Q      -0.195500
     65 OAZ         -3.4250     1.3440     3.0400 o          1 61Q      -0.195500
     66 CBN         -1.9460     3.6090     3.3640 ca         1 61Q      -0.038000
     67 CBM         -1.1480     4.7610     3.3200 ca         1 61Q      -0.175000
     68 CBL          0.1730     4.6730     2.9740 ca         1 61Q      -0.038000
     69 CBK          0.7410     3.4280     2.6380 ca         1 61Q      -0.178300
     70 CBJ          2.1110     3.2930     2.2640 ca         1 61Q       0.218100
     71 OAC          2.8180     4.4100     2.2460 os         1 61Q      -0.313900
     72 CAQ          4.1920     4.3620     1.8670 c3         1 61Q       0.140400
     73 CAS          4.7540     5.7620     1.9640 c3         1 61Q      -0.084400
     74 CAT          6.2320     5.7880     1.6030 c3         1 61Q       0.150800
     75 NAI          6.7550     7.1410     1.7130 n8         1 61Q      -0.886800
     76 H1           6.3660    -7.6790    -2.2130 hn         1 61Q       0.332800
     77 H2           6.0290    -8.6260    -3.4730 hn         1 61Q       0.332800
     78 H4           4.4730    -7.1280    -4.3590 h1         1 61Q       0.029700
     79 H5           4.0210    -7.4770    -2.7010 h1         1 61Q       0.029700
     80 H6           5.2730    -5.4220    -1.9600 hc         1 61Q       0.056700
     81 H7           5.6270    -5.0590    -3.6470 hc         1 61Q       0.056700
     82 H8           3.1670    -4.9320    -4.1220 h1         1 61Q       0.042200
     83 H9           2.8290    -5.3310    -2.4340 h1         1 61Q       0.042200
     84 H10          1.1070    -4.1300    -3.1720 ha         1 61Q       0.167000
     85 H12          5.0460    -1.4370    -2.1710 ha         1 61Q       0.133000
     86 H13          5.2740     0.8990    -1.4800 ha         1 61Q       0.112000
     87 H14          3.3080     2.3030    -1.0490 ha         1 61Q       0.139000
     88 H15         -0.0950     0.7830    -1.3160 hn         1 61Q       0.391500
     89 H16         -0.8020     4.9560    -0.2090 ha         1 61Q       0.158000
     90 H17         -1.8140     6.5120     1.1230 h1         1 61Q       0.038700
     91 H18         -2.2420     6.7750    -0.5720 h1         1 61Q       0.038700
     92 H19         -4.3890     7.8250     0.1170 hc         1 61Q       0.062200
     93 H20         -4.0180     7.4960     1.8090 hc         1 61Q       0.062200
     94 H21         -1.9650     8.9250     1.6130 h1         1 61Q       0.028200
     95 H22         -2.3940     9.2910    -0.0490 h1         1 61Q       0.028200
     96 H23         -4.0380     9.9680     2.2610 hn         1 61Q       0.335800
     97 H24         -3.2100    10.9950     1.3350 hn         1 61Q       0.335800
     98 H26         -5.5180     4.0610     0.6560 ha         1 61Q       0.134000
     99 H27         -6.7860     1.9690     0.7070 ha         1 61Q       0.122000
    100 H28         -5.7010    -0.1990     0.3980 ha         1 61Q       0.167000
    101 H29         -2.0030    -0.3740    -0.1330 hn         1 61Q       0.376500
    102 H30         -3.4060    -4.4060    -0.6600 ha         1 61Q       0.166000
    103 H31         -3.3620    -6.7090    -0.7020 h1         1 61Q       0.053700
    104 H32         -2.8570    -6.0250    -2.2570 h1         1 61Q       0.053700
    105 H33         -1.4730    -8.0400    -2.6990 hc         1 61Q       0.057200
    106 H34         -1.9170    -8.7150    -1.1320 hc         1 61Q       0.057200
    107 H35         -4.2910    -8.7900    -1.8020 h1         1 61Q       0.031200
    108 H36         -3.9120    -8.0380    -3.3400 h1         1 61Q       0.031200
    109 H37         -4.0710   -10.4790    -3.3890 hn         1 61Q       0.333800
    110 H38         -2.6120    -9.9830    -3.8630 hn         1 61Q       0.333800
    111 H40          1.0830    -6.2590    -0.3710 ha         1 61Q       0.137000
    112 H41          3.2180    -5.2520     0.2780 ha         1 61Q       0.119000
    113 H42          3.3630    -2.9180     1.0030 ha         1 61Q       0.159000
    114 H43          0.2630    -0.8610     1.3080 hn         1 61Q       0.378500
    115 H44          3.6290     1.8710     1.6830 ha         1 61Q       0.175000
    116 H45         -2.9820     3.6890     3.6630 ha         1 61Q       0.165000
    117 H46         -1.5820     5.7140     3.5860 ha         1 61Q       0.137000
    118 H47          0.7830     5.5650     2.9580 ha         1 61Q       0.148000
    119 H48          4.7350     3.6820     2.5320 h1         1 61Q       0.049200
    120 H49          4.2800     3.9760     0.8450 h1         1 61Q       0.049200
    121 H50          4.2000     6.4260     1.2940 hc         1 61Q       0.061200
    122 H51          4.6250     6.1410     2.9810 hc         1 61Q       0.061200
    123 H52          6.7830     5.1520     2.3000 h1         1 61Q       0.031200
    124 H53          6.3690     5.3450     0.6060 h1         1 61Q       0.031200
    125 H54          7.7510     7.1310     1.5360 hn         1 61Q       0.337800
    126 H55          6.3560     7.7150     0.9800 hn         1 61Q       0.337800
@<TRIPOS>BOND
     1     1     2 1   
     2     1    76 1   
     3     1    77 1   
     4     2     3 1   
     5     2    78 1   
     6     2    79 1   
     7     3     4 1   
     8     3    80 1   
     9     3    81 1   
    10     4     5 1   
    11     4    82 1   
    12     4    83 1   
    13     5     6 1   
    14     6     7 ar  
    15     6    14 ar  
    16     7     8 ar  
    17     7    84 1   
    18     8     9 1   
    19     8    12 ar  
    20     9    10 1   
    21     9    11 1   
    22    12    13 ar  
    23    13    14 ar  
    24    13    18 ar  
    25    14    15 ar  
    26    15    16 ar  
    27    15    85 1   
    28    16    17 ar  
    29    16    86 1   
    30    17    18 ar  
    31    17    87 1   
    32    18    19 1   
    33    19    20 1   
    34    19    88 1   
    35    20    21 2   
    36    20    22 1   
    37    22    23 ar  
    38    22    30 ar  
    39    23    24 ar  
    40    23    89 1   
    41    24    25 1   
    42    24    32 ar  
    43    25    26 1   
    44    26    27 1   
    45    26    90 1   
    46    26    91 1   
    47    27    28 1   
    48    27    92 1   
    49    27    93 1   
    50    28    29 1   
    51    28    94 1   
    52    28    95 1   
    53    29    96 1   
    54    29    97 1   
    55    30    31 ar  
    56    31    32 ar  
    57    31    36 ar  
    58    32    33 ar  
    59    33    34 ar  
    60    33    98 1   
    61    34    35 ar  
    62    34    99 1   
    63    35    36 ar  
    64    35   100 1   
    65    36    37 1   
    66    37    38 1   
    67    37   101 1   
    68    38    39 2   
    69    38    40 1   
    70    40    41 ar  
    71    40    48 ar  
    72    41    42 ar  
    73    41   102 1   
    74    42    43 1   
    75    42    50 ar  
    76    43    44 1   
    77    44    45 1   
    78    44   103 1   
    79    44   104 1   
    80    45    46 1   
    81    45   105 1   
    82    45   106 1   
    83    46    47 1   
    84    46   107 1   
    85    46   108 1   
    86    47   109 1   
    87    47   110 1   
    88    48    49 ar  
    89    49    50 ar  
    90    49    54 ar  
    91    50    51 ar  
    92    51    52 ar  
    93    51   111 1   
    94    52    53 ar  
    95    52   112 1   
    96    53    54 ar  
    97    53   113 1   
    98    54    55 1   
    99    55    56 1   
   100    55   114 1   
   101    56    57 2   
   102    56    58 1   
   103    58    59 ar  
   104    58    60 ar  
   105    59    70 ar  
   106    59   115 1   
   107    60    61 ar  
   108    61    62 ar  
   109    61    69 ar  
   110    62    63 1   
   111    62    66 ar  
   112    63    64 1   
   113    63    65 1   
   114    66    67 ar  
   115    66   116 1   
   116    67    68 ar  
   117    67   117 1   
   118    68    69 ar  
   119    68   118 1   
   120    69    70 ar  
   121    70    71 1   
   122    71    72 1   
   123    72    73 1   
   124    72   119 1   
   125    72   120 1   
   126    73    74 1   
   127    73   121 1   
   128    73   122 1   
   129    74    75 1   
   130    74   123 1   
   131    74   124 1   
   132    75   125 1   
   133    75   126 1   
@<TRIPOS>SUBSTRUCTURE
     1 61Q         1 TEMP              0 ****  ****    0 ROOT
