@<TRIPOS>MOLECULE
61Q
  126   133     1     0     0
SMALL
No Charge or Current Charge


@<TRIPOS>ATOM
      1 NAB          6.8500    -7.2700    -3.3380 n8         1 61Q      -0.997200
      2 CAF          5.4640    -6.7680    -3.3800 c3         1 61Q       0.147800
      3 CAD          5.3950    -5.2670    -3.0410 c3         1 61Q      -0.084400
      4 CAA          3.9570    -4.7190    -3.0910 c3         1 61Q       0.162600
      5 OAW          4.0110    -3.3240    -2.7480 os         1 61Q      -0.352100
      6 CCR          2.8740    -2.5440    -2.6400 ca         1 61Q       0.150100
      7 CCQ          1.5990    -3.0400    -2.9640 ca         1 61Q      -0.221000
      8 CCP          0.4640    -2.2120    -2.8350 ca         1 61Q       0.334500
      9 COW         -0.9400    -2.7470    -3.2600 c          1 61Q       0.607500
     10 OAX         -1.9250    -2.0200    -3.1560 o          1 61Q      -0.700000
     11 OBI         -1.0250    -3.8790    -3.7270 o          1 61Q      -0.700000
     12 NBH          0.5920    -0.9370    -2.3600 nb         1 61Q      -0.689000
     13 CCO          1.8110    -0.4410    -2.0390 ca         1 61Q       0.255000
     14 CCS          2.9880    -1.2120    -2.1930 ca         1 61Q      -0.086000
     15 CCT          4.2460    -0.6490    -1.8870 ca         1 61Q      -0.084000
     16 CCU          4.3370     0.6750    -1.4320 ca         1 61Q      -0.117000
     17 CCV          3.1750     1.4380    -1.2480 ca         1 61Q      -0.157000
     18 CCN          1.9120     0.8790    -1.5330 ca         1 61Q      -0.020000
     19 NBG          0.6960     1.5570    -1.2530 ns         1 61Q      -0.106000
     20 CCM          0.3810     2.8500    -0.8690 c          1 61Q       0.506600
     21 OAV          1.1900     3.7770    -0.8500 o          1 61Q      -0.627100
     22 CCF         -1.0910     2.9980    -0.4690 ca         1 61Q       0.323500
     23 CCG         -1.6440     4.2600    -0.1930 ca         1 61Q      -0.237000
     24 CCH         -3.0060     4.3600     0.1470 ca         1 61Q       0.170100
     25 OAU         -3.5990     5.5770     0.4300 os         1 61Q      -0.342100
     26 CAH         -2.8560     6.8060     0.4610 c3         1 61Q       0.162600
     27 CAK         -3.8310     7.9290     0.8570 c3         1 61Q      -0.085400
     28 CAL         -3.1430     9.3050     0.9330 c3         1 61Q       0.149800
     29 NAE         -4.0970    10.3670     1.3020 n8         1 61Q      -0.993200
     30 NBF         -1.8420     1.8680    -0.3750 nb         1 61Q      -0.672000
     31 CCE         -3.1510     1.9370    -0.0410 ca         1 61Q       0.247000
     32 CCI         -3.7800     3.1800     0.2080 ca         1 61Q      -0.054000
     33 CCJ         -5.1550     3.2230     0.5280 ca         1 61Q      -0.135000
     34 CCK         -5.8980     2.0360     0.6110 ca         1 61Q      -0.062000
     35 CCL         -5.2750     0.7970     0.3960 ca         1 61Q      -0.148000
     36 CCD         -3.9010     0.7380     0.0770 ca         1 61Q       0.050000
     37 NBE         -3.1970    -0.4920    -0.0540 ns         1 61Q      -0.092000
     38 CCC         -3.6050    -1.8110    -0.1830 c          1 61Q       0.546600
     39 OAR         -4.7840    -2.1440    -0.3260 o          1 61Q      -0.601100
     40 CBV         -2.4480    -2.8180    -0.1270 ca         1 61Q       0.392500
     41 CBW         -2.6490    -4.1500    -0.5270 ca         1 61Q      -0.203000
     42 CBX         -1.5660    -5.0470    -0.5240 ca         1 61Q       0.211100
     43 OAN         -1.7040    -6.3630    -0.9300 os         1 61Q      -0.341100
     44 CAM         -2.9420    -6.8900    -1.4370 c3         1 61Q       0.160600
     45 CAO         -2.7040    -8.3680    -1.7980 c3         1 61Q      -0.081400
     46 CAP         -3.9680    -9.0470    -2.3600 c3         1 61Q       0.148800
     47 NAG         -3.7200   -10.4640    -2.6880 n8         1 61Q      -1.000200
     48 NBD         -1.2310    -2.3950     0.3230 nb         1 61Q      -0.708000
     49 CBU         -0.1750    -3.2450     0.3370 ca         1 61Q       0.274000
     50 CBY         -0.3020    -4.5860    -0.1000 ca         1 61Q      -0.066000
     51 CBZ          0.8230    -5.4380    -0.1080 ca         1 61Q      -0.099000
     52 CCA          2.0700    -4.9640     0.3180 ca         1 61Q      -0.108000
     53 CCB          2.2060    -3.6420     0.7660 ca         1 61Q      -0.137000
     54 CBT          1.0890    -2.7790     0.7820 ca         1 61Q      -0.003000
     55 NBC          1.1640    -1.4340     1.2420 ns         1 61Q      -0.098000
     56 CBS          2.2220    -0.5950     1.5630 c          1 61Q       0.510600
     57 OAJ          3.4040    -0.9320     1.5040 o          1 61Q      -0.590100
     58 CBQ          1.7770     0.8070     1.9890 ca         1 61Q       0.377500
     59 CBR          2.6930     1.8690     1.9940 ca         1 61Q      -0.232000
     60 NBB          0.4800     0.9970     2.3490 nb         1 61Q      -0.674000
     61 CBP          0.0380     2.2210     2.7180 ca         1 61Q       0.346000
     62 CBO         -1.3000     2.4070     3.1430 ca         1 61Q      -0.161200
     63 NBA         -2.2160     1.2470     3.3140 no         1 61Q       0.700200
     64 OAY         -1.7980     0.2630     3.9380 o          1 61Q      -0.385500
     65 OAZ         -3.4190     1.4450     3.1080 o          1 61Q      -0.385500
     66 CBN         -1.7830     3.7010     3.4350 ca         1 61Q      -0.020000
     67 CBM         -0.9310     4.8090     3.3440 ca         1 61Q      -0.157000
     68 CBL          0.4090     4.6330     2.9780 ca         1 61Q      -0.020000
     69 CBK          0.8980     3.3450     2.6700 ca         1 61Q      -0.113000
     70 CBJ          2.2490     3.1610     2.3140 ca         1 61Q       0.218100
     71 OAC          3.1000     4.2510     2.2920 os         1 61Q      -0.337100
     72 CAQ          4.4730     4.1510     1.8790 c3         1 61Q       0.163600
     73 CAS          5.0840     5.5620     1.9570 c3         1 61Q      -0.084400
     74 CAT          6.5630     5.5880     1.5290 c3         1 61Q       0.150800
     75 NAI          7.1300     6.9460     1.6250 n8         1 61Q      -0.997200
     76 H1           7.2040    -7.1950    -2.3760 hn         1 61Q       0.388000
     77 H2           6.8450    -8.2820    -3.5150 hn         1 61Q       0.388000
     78 H4           5.0590    -6.9380    -4.3880 h1         1 61Q       0.029700
     79 H5           4.8590    -7.3390    -2.6620 h1         1 61Q       0.029700
     80 H6           5.8060    -5.0990    -2.0380 hc         1 61Q       0.056700
     81 H7           6.0170    -4.7040    -3.7480 hc         1 61Q       0.056700
     82 H8           3.5470    -4.8560    -4.1000 h1         1 61Q       0.042200
     83 H9           3.3310    -5.2700    -2.3770 h1         1 61Q       0.042200
     84 H10          1.4660    -4.0520    -3.3280 ha         1 61Q       0.149000
     85 H12          5.1580    -1.2300    -2.0020 ha         1 61Q       0.115000
     86 H13          5.3090     1.1030    -1.2010 ha         1 61Q       0.094000
     87 H14          3.2690     2.4480    -0.8620 ha         1 61Q       0.121000
     88 H15         -0.1130     0.9450    -1.2850 hn         1 61Q       0.225000
     89 H16         -1.0070     5.1350    -0.2600 ha         1 61Q       0.140000
     90 H17         -2.0440     6.7500     1.1980 h1         1 61Q       0.038700
     91 H18         -2.4240     7.0240    -0.5250 h1         1 61Q       0.038700
     92 H19         -4.6450     7.9700     0.1240 hc         1 61Q       0.062200
     93 H20         -4.2760     7.6890     1.8290 hc         1 61Q       0.062200
     94 H21         -2.3380     9.2780     1.6810 h1         1 61Q       0.028200
     95 H22         -2.7030     9.5530    -0.0430 h1         1 61Q       0.028200
     96 H23         -4.4430    10.1920     2.2530 hn         1 61Q       0.391000
     97 H24         -3.5900    11.2570     1.3910 hn         1 61Q       0.391000
     98 H26         -5.6520     4.1710     0.7180 ha         1 61Q       0.116000
     99 H27         -6.9550     2.0760     0.8640 ha         1 61Q       0.104000
    100 H28         -5.8660    -0.1060     0.5100 ha         1 61Q       0.149000
    101 H29         -2.1900    -0.3830    -0.0160 hn         1 61Q       0.210000
    102 H30         -3.6350    -4.4520    -0.8620 ha         1 61Q       0.148000
    103 H31         -3.7340    -6.8210    -0.6800 h1         1 61Q       0.053700
    104 H32         -3.2590    -6.3400    -2.3330 h1         1 61Q       0.053700
    105 H33         -1.8960    -8.4290    -2.5380 hc         1 61Q       0.057200
    106 H34         -2.3700    -8.9050    -0.9020 hc         1 61Q       0.057200
    107 H35         -4.7760    -8.9950    -1.6180 h1         1 61Q       0.031200
    108 H36         -4.2970    -8.5260    -3.2700 h1         1 61Q       0.031200
    109 H37         -4.5690   -10.8640    -3.1080 hn         1 61Q       0.389000
    110 H38         -3.0290   -10.5170    -3.4460 hn         1 61Q       0.389000
    111 H40          0.7390    -6.4690    -0.4450 ha         1 61Q       0.119000
    112 H41          2.9340    -5.6250     0.3090 ha         1 61Q       0.101000
    113 H42          3.1830    -3.3110     1.1030 ha         1 61Q       0.141000
    114 H43          0.2550    -0.9940     1.3330 hn         1 61Q       0.212000
    115 H44          3.7220     1.6720     1.7120 ha         1 61Q       0.157000
    116 H45         -2.8140     3.8530     3.7490 ha         1 61Q       0.147000
    117 H46         -1.3050     5.8030     3.5760 ha         1 61Q       0.119000
    118 H47          1.0600     5.5040     2.9330 ha         1 61Q       0.130000
    119 H48          5.0300     3.4730     2.5390 h1         1 61Q       0.049200
    120 H49          4.5430     3.7790     0.8480 h1         1 61Q       0.049200
    121 H50          4.5060     6.2370     1.3140 hc         1 61Q       0.061200
    122 H51          4.9960     5.9330     2.9850 hc         1 61Q       0.061200
    123 H52          7.1460     4.9180     2.1770 h1         1 61Q       0.031200
    124 H53          6.6570     5.2370     0.4920 h1         1 61Q       0.031200
    125 H54          8.1000     6.9290     1.2830 hn         1 61Q       0.393000
    126 H55          6.6510     7.5580     0.9530 hn         1 61Q       0.393000
@<TRIPOS>BOND
     1     1     2 1   
     2     1    76 1   
     3     1    77 1   
     4     2     3 1   
     5     2    78 1   
     6     2    79 1   
     7     3     4 1   
     8     3    80 1   
     9     3    81 1   
    10     4     5 1   
    11     4    82 1   
    12     4    83 1   
    13     5     6 1   
    14     6     7 ar  
    15     6    14 ar  
    16     7     8 ar  
    17     7    84 1   
    18     8     9 1   
    19     8    12 ar  
    20     9    10 1   
    21     9    11 1   
    22    12    13 ar  
    23    13    14 ar  
    24    13    18 ar  
    25    14    15 ar  
    26    15    16 ar  
    27    15    85 1   
    28    16    17 ar  
    29    16    86 1   
    30    17    18 ar  
    31    17    87 1   
    32    18    19 1   
    33    19    20 1   
    34    19    88 1   
    35    20    21 2   
    36    20    22 1   
    37    22    23 ar  
    38    22    30 ar  
    39    23    24 ar  
    40    23    89 1   
    41    24    25 1   
    42    24    32 ar  
    43    25    26 1   
    44    26    27 1   
    45    26    90 1   
    46    26    91 1   
    47    27    28 1   
    48    27    92 1   
    49    27    93 1   
    50    28    29 1   
    51    28    94 1   
    52    28    95 1   
    53    29    96 1   
    54    29    97 1   
    55    30    31 ar  
    56    31    32 ar  
    57    31    36 ar  
    58    32    33 ar  
    59    33    34 ar  
    60    33    98 1   
    61    34    35 ar  
    62    34    99 1   
    63    35    36 ar  
    64    35   100 1   
    65    36    37 1   
    66    37    38 1   
    67    37   101 1   
    68    38    39 2   
    69    38    40 1   
    70    40    41 ar  
    71    40    48 ar  
    72    41    42 ar  
    73    41   102 1   
    74    42    43 1   
    75    42    50 ar  
    76    43    44 1   
    77    44    45 1   
    78    44   103 1   
    79    44   104 1   
    80    45    46 1   
    81    45   105 1   
    82    45   106 1   
    83    46    47 1   
    84    46   107 1   
    85    46   108 1   
    86    47   109 1   
    87    47   110 1   
    88    48    49 ar  
    89    49    50 ar  
    90    49    54 ar  
    91    50    51 ar  
    92    51    52 ar  
    93    51   111 1   
    94    52    53 ar  
    95    52   112 1   
    96    53    54 ar  
    97    53   113 1   
    98    54    55 1   
    99    55    56 1   
   100    55   114 1   
   101    56    57 2   
   102    56    58 1   
   103    58    59 ar  
   104    58    60 ar  
   105    59    70 ar  
   106    59   115 1   
   107    60    61 ar  
   108    61    62 ar  
   109    61    69 ar  
   110    62    63 1   
   111    62    66 ar  
   112    63    64 1   
   113    63    65 1   
   114    66    67 ar  
   115    66   116 1   
   116    67    68 ar  
   117    67   117 1   
   118    68    69 ar  
   119    68   118 1   
   120    69    70 ar  
   121    70    71 1   
   122    71    72 1   
   123    72    73 1   
   124    72   119 1   
   125    72   120 1   
   126    73    74 1   
   127    73   121 1   
   128    73   122 1   
   129    74    75 1   
   130    74   123 1   
   131    74   124 1   
   132    75   125 1   
   133    75   126 1   
@<TRIPOS>SUBSTRUCTURE
     1 61Q         1 TEMP              0 ****  ****    0 ROOT
