@<TRIPOS>MOLECULE
61S
   69    71     1     0     0
SMALL
bcc


@<TRIPOS>ATOM
      1 C1          -4.9700     0.3460    -0.7970 c3         1 61S      -0.026100
      2 C10          4.0300    -4.1640    -1.4400 c3         1 61S      -0.106767
      3 C8           5.7950     2.8980    -0.9440 ca         1 61S      -0.124500
      4 C7           6.9840     3.4050    -1.4500 ca         1 61S      -0.126500
      5 C5           8.1980     2.2950     0.2970 ca         1 61S      -0.126500
      6 C3           5.7900     2.0830     0.1870 ca         1 61S      -0.083300
      7 C2           2.6620    -1.8000    -0.1530 c          1 61S       0.639100
      8 O4           3.4050    -2.7120     0.4430 os         1 61S      -0.435900
      9 C9           3.5000    -4.0960    -0.0130 c3         1 61S       0.181800
     10 C12          2.1560    -4.7970     0.1320 c3         1 61S      -0.106767
     11 C11          4.5110    -4.7070     0.9490 c3         1 61S      -0.106767
     12 C62          2.8650    -0.4390     0.5080 c3         1 61S       0.052700
     13 C63          4.1600     0.1940    -0.0100 c3         1 61S      -0.082400
     14 C71          4.5050     1.5020     0.7070 c3         1 61S      -0.029100
     15 C6           8.1910     3.1050    -0.8310 ca         1 61S      -0.128000
     16 C4           7.0060     1.7880     0.7990 ca         1 61S      -0.124500
     17 N61          1.7480     0.4250     0.2480 ns         1 61S      -0.555900
     18 O60          0.3670    -0.7860     1.5420 o          1 61S      -0.603100
     19 C51         -0.5700     1.0780     0.4120 ca         1 61S      -0.201600
     20 C50         -1.8850     0.6600     0.6130 ca         1 61S      -0.025000
     21 C52         -0.3640     2.3570    -0.1060 ca         1 61S      -0.054000
     22 C53         -1.4330     3.1700    -0.4200 ca         1 61S      -0.221000
     23 C54         -2.7540     2.7380    -0.2320 ca         1 61S       0.199600
     24 N55         -3.7930     3.5850    -0.5070 nv         1 61S      -0.838200
     25 C49         -2.9770     1.4500     0.3010 ca         1 61S      -0.164300
     26 C48         -4.3700     0.9200     0.4970 c3         1 61S      -0.027100
     27 C32         -6.3640    -0.1770    -0.5900 ca         1 61S      -0.119300
     28 C37         -7.4630     0.6800    -0.6020 ca         1 61S      -0.086000
     29 C36         -8.7490     0.2180    -0.3700 ca         1 61S      -0.191000
     30 C35         -8.9640    -1.1350    -0.1150 ca         1 61S       0.138100
     31 O38        -10.2310    -1.5430     0.1070 oh         1 61S      -0.495100
     32 C34         -7.8800    -2.0060    -0.1010 ca         1 61S      -0.191000
     33 C33         -6.6000    -1.5230    -0.3350 ca         1 61S      -0.086000
     34 H1          -4.9720     1.1100    -1.5810 hc         1 61S       0.045200
     35 H2          -4.3210    -0.4560    -1.1560 hc         1 61S       0.045200
     36 H3           4.9390    -3.5710    -1.5500 hc         1 61S       0.048700
     37 H4           4.2830    -5.1990    -1.6720 hc         1 61S       0.048700
     38 H5           3.3020    -3.8270    -2.1740 hc         1 61S       0.048700
     39 H6           4.8580     3.1400    -1.4320 ha         1 61S       0.128000
     40 H7           6.9680     4.0390    -2.3280 ha         1 61S       0.130500
     41 H8           9.1330     2.0600     0.7900 ha         1 61S       0.130500
     42 H9           1.4070    -4.4100    -0.5550 hc         1 61S       0.048700
     43 H10          2.2850    -5.8590    -0.0810 hc         1 61S       0.048700
     44 H11          1.7760    -4.7070     1.1510 hc         1 61S       0.048700
     45 H12          4.1640    -4.6490     1.9810 hc         1 61S       0.048700
     46 H13          4.6620    -5.7580     0.7040 hc         1 61S       0.048700
     47 H14          5.4780    -4.2050     0.8830 hc         1 61S       0.048700
     48 H15          2.9610    -0.5900     1.5860 h1         1 61S       0.099700
     49 H16          4.9780    -0.5160     0.1300 hc         1 61S       0.058700
     50 H17          4.0800     0.3680    -1.0870 hc         1 61S       0.058700
     51 H18          4.5900     1.3090     1.7790 hc         1 61S       0.052700
     52 H19          3.6960     2.2240     0.5830 hc         1 61S       0.052700
     53 H20          9.1180     3.5010    -1.2230 ha         1 61S       0.131000
     54 H21          7.0210     1.1570     1.6810 ha         1 61S       0.128000
     55 H22          1.8030     1.0270    -0.5570 hn         1 61S       0.318500
     56 H23         -2.0670    -0.3260     1.0240 ha         1 61S       0.151000
     57 H24          0.6340     2.7520    -0.2510 ha         1 61S       0.126000
     58 H25         -1.2510     4.1640    -0.8110 ha         1 61S       0.131000
     59 H26         -3.5920     4.3730    -1.0990 hn         1 61S       0.406300
     60 H27         -4.7000     3.1890    -0.6820 hn         1 61S       0.406300
     61 H28         -5.0300     1.6960     0.8960 hc         1 61S       0.053700
     62 H29         -4.3520     0.1300     1.2520 hc         1 61S       0.053700
     63 H30         -7.3190     1.7360    -0.8030 ha         1 61S       0.128500
     64 H31         -9.5880     0.9030    -0.3900 ha         1 61S       0.139000
     65 H32        -10.2550    -2.4950     0.2530 ho         1 61S       0.425000
     66 H33         -8.0300    -3.0630     0.0880 ha         1 61S       0.139000
     67 H34         -5.7690    -2.2200    -0.3210 ha         1 61S       0.128500
     68 C59          0.5330     0.1600     0.7820 c          1 61S       0.689700
     69 O3           1.9500    -1.9740    -1.1080 o          1 61S      -0.541000
@<TRIPOS>BOND
     1     1    26 1   
     2     1    27 1   
     3     1    34 1   
     4     1    35 1   
     5     2     9 1   
     6     2    36 1   
     7     2    37 1   
     8     2    38 1   
     9     3     4 ar  
    10     3     6 ar  
    11     3    39 1   
    12     4    15 ar  
    13     4    40 1   
    14     5    15 ar  
    15     5    16 ar  
    16     5    41 1   
    17     6    14 1   
    18     6    16 ar  
    19     7     8 1   
    20     7    12 1   
    21     7    69 2   
    22     8     9 1   
    23     9    10 1   
    24     9    11 1   
    25    10    42 1   
    26    10    43 1   
    27    10    44 1   
    28    11    45 1   
    29    11    46 1   
    30    11    47 1   
    31    12    13 1   
    32    12    17 1   
    33    12    48 1   
    34    13    14 1   
    35    13    49 1   
    36    13    50 1   
    37    14    51 1   
    38    14    52 1   
    39    15    53 1   
    40    16    54 1   
    41    17    55 1   
    42    17    68 1   
    43    18    68 2   
    44    19    20 ar  
    45    19    21 ar  
    46    19    68 1   
    47    20    25 ar  
    48    20    56 1   
    49    21    22 ar  
    50    21    57 1   
    51    22    23 ar  
    52    22    58 1   
    53    23    24 1   
    54    23    25 ar  
    55    24    59 1   
    56    24    60 1   
    57    25    26 1   
    58    26    61 1   
    59    26    62 1   
    60    27    28 ar  
    61    27    33 ar  
    62    28    29 ar  
    63    28    63 1   
    64    29    30 ar  
    65    29    64 1   
    66    30    31 1   
    67    30    32 ar  
    68    31    65 1   
    69    32    33 ar  
    70    32    66 1   
    71    33    67 1   
@<TRIPOS>SUBSTRUCTURE
     1 61S         1 TEMP              0 ****  ****    0 ROOT
