@<TRIPOS>MOLECULE
61S
   69    71     1     0     0
SMALL
No Charge or Current Charge


@<TRIPOS>ATOM
      1 C1          -5.3030     0.2950    -0.2030 c3         1 61S      -0.026100
      2 C10          5.9220    -3.6090    -2.3620 c3         1 61S      -0.106767
      3 C8           4.6630     3.0000     0.8270 ca         1 61S      -0.106500
      4 C7           5.6890     3.8930     1.1820 ca         1 61S      -0.108500
      5 C5           6.3680     2.3990     2.9780 ca         1 61S      -0.108500
      6 C3           4.4830     1.8030     1.5460 ca         1 61S      -0.083300
      7 C2           3.3970    -2.3020    -1.2690 c          1 61S       0.590100
      8 O4           4.2720    -3.1410    -0.6120 os         1 61S      -0.459100
      9 C9           4.9900    -4.2070    -1.2760 c3         1 61S       0.205000
     10 C12          3.9830    -5.2430    -1.8410 c3         1 61S      -0.106767
     11 C11          5.8350    -4.8500    -0.1550 c3         1 61S      -0.106767
     12 C62          2.7960    -1.2540    -0.2950 c3         1 61S       0.052700
     13 C63          3.8440    -0.1740     0.0820 c3         1 61S      -0.082400
     14 C71          3.3760     0.8330     1.1570 c3         1 61S      -0.029100
     15 C6           6.5420     3.5930     2.2580 ca         1 61S      -0.110000
     16 C4           5.3420     1.5060     2.6230 ca         1 61S      -0.106500
     17 N61          1.5630    -0.6630    -0.8680 ns         1 61S      -0.488900
     18 O60          0.3340    -0.6020     1.0380 o          1 61S      -0.603100
     19 C51         -0.7210     0.2490    -0.9400 ca         1 61S      -0.201600
     20 C50         -1.9230     0.5650    -0.2700 ca         1 61S      -0.007000
     21 C52         -0.6250     0.5250    -2.3240 ca         1 61S      -0.036000
     22 C53         -1.7100     1.0980    -3.0070 ca         1 61S      -0.203000
     23 C54         -2.8980     1.4060    -2.3340 ca         1 61S       0.338000
     24 N55         -3.9270     1.9570    -3.0500 nv         1 61S      -1.087000
     25 C49         -3.0140     1.1430    -0.9520 ca         1 61S      -0.164300
     26 C48         -4.2880     1.4560    -0.1630 c3         1 61S      -0.027100
     27 C32         -6.5620     0.6020     0.5980 ca         1 61S      -0.119300
     28 C37         -7.7000     1.1340    -0.0410 ca         1 61S      -0.068000
     29 C36         -8.8580     1.4200     0.7030 ca         1 61S      -0.173000
     30 C35         -8.8850     1.1790     2.0840 ca         1 61S       0.138100
     31 O38        -10.0120     1.4610     2.7960 oh         1 61S      -0.534100
     32 C34         -7.7540     0.6510     2.7270 ca         1 61S      -0.173000
     33 C33         -6.5940     0.3640     1.9860 ca         1 61S      -0.068000
     34 H1          -5.5610     0.0760    -1.2470 hc         1 61S       0.045200
     35 H2          -4.8240    -0.6120     0.1870 hc         1 61S       0.045200
     36 H3           6.4950    -2.7640    -1.9610 hc         1 61S       0.048700
     37 H4           6.6350    -4.3650    -2.7120 hc         1 61S       0.048700
     38 H5           5.3630    -3.2630    -3.2380 hc         1 61S       0.048700
     39 H6           4.0090     3.2380    -0.0090 ha         1 61S       0.110000
     40 H7           5.8240     4.8170     0.6230 ha         1 61S       0.112500
     41 H8           7.0290     2.1650     3.8100 ha         1 61S       0.112500
     42 H9           3.4620    -4.8680    -2.7280 hc         1 61S       0.048700
     43 H10          4.5060    -6.1600    -2.1370 hc         1 61S       0.048700
     44 H11          3.2350    -5.5100    -1.0850 hc         1 61S       0.048700
     45 H12          5.1910    -5.2390     0.6440 hc         1 61S       0.048700
     46 H13          6.4320    -5.6830    -0.5440 hc         1 61S       0.048700
     47 H14          6.5200    -4.1170     0.2860 hc         1 61S       0.048700
     48 H15          2.5340    -1.8130     0.6130 h1         1 61S       0.099700
     49 H16          4.7490    -0.6740     0.4500 hc         1 61S       0.058700
     50 H17          4.1370     0.3750    -0.8210 hc         1 61S       0.058700
     51 H18          3.0290     0.2830     2.0410 hc         1 61S       0.052700
     52 H19          2.5100     1.3930     0.7840 hc         1 61S       0.052700
     53 H20          7.3360     4.2840     2.5320 ha         1 61S       0.113000
     54 H21          5.2170     0.5820     3.1840 ha         1 61S       0.110000
     55 H22          1.5450    -0.4750    -1.8620 hn         1 61S       0.318500
     56 H23         -2.0170     0.3580     0.7950 ha         1 61S       0.133000
     57 H24          0.2770     0.3030    -2.8870 ha         1 61S       0.108000
     58 H25         -1.6190     1.3020    -4.0700 ha         1 61S       0.113000
     59 H26         -3.8770     1.9710    -4.0660 hn         1 61S       0.461500
     60 H27         -4.8470     2.0230    -2.6260 hn         1 61S       0.461500
     61 H28         -4.7670     2.3710    -0.5330 hc         1 61S       0.053700
     62 H29         -4.0380     1.6650     0.8850 hc         1 61S       0.053700
     63 H30         -7.6880     1.3250    -1.1120 ha         1 61S       0.110500
     64 H31         -9.7340     1.8300     0.2060 ha         1 61S       0.121000
     65 H32         -9.8510     1.2310     3.7360 ho         1 61S       0.464000
     66 H33         -7.7650     0.4620     3.7980 ha         1 61S       0.121000
     67 H34         -5.7200    -0.0440     2.4900 ha         1 61S       0.110500
     68 C59          0.4180    -0.3690    -0.1600 c          1 61S       0.622700
     69 O3           3.1100    -2.3630    -2.4590 o          1 61S      -0.492000
@<TRIPOS>BOND
     1     1    26 1   
     2     1    27 1   
     3     1    34 1   
     4     1    35 1   
     5     2     9 1   
     6     2    36 1   
     7     2    37 1   
     8     2    38 1   
     9     3     4 ar  
    10     3     6 ar  
    11     3    39 1   
    12     4    15 ar  
    13     4    40 1   
    14     5    15 ar  
    15     5    16 ar  
    16     5    41 1   
    17     6    14 1   
    18     6    16 ar  
    19     7     8 1   
    20     7    12 1   
    21     7    69 2   
    22     8     9 1   
    23     9    10 1   
    24     9    11 1   
    25    10    42 1   
    26    10    43 1   
    27    10    44 1   
    28    11    45 1   
    29    11    46 1   
    30    11    47 1   
    31    12    13 1   
    32    12    17 1   
    33    12    48 1   
    34    13    14 1   
    35    13    49 1   
    36    13    50 1   
    37    14    51 1   
    38    14    52 1   
    39    15    53 1   
    40    16    54 1   
    41    17    55 1   
    42    17    68 1   
    43    18    68 2   
    44    19    20 ar  
    45    19    21 ar  
    46    19    68 1   
    47    20    25 ar  
    48    20    56 1   
    49    21    22 ar  
    50    21    57 1   
    51    22    23 ar  
    52    22    58 1   
    53    23    24 1   
    54    23    25 ar  
    55    24    59 1   
    56    24    60 1   
    57    25    26 1   
    58    26    61 1   
    59    26    62 1   
    60    27    28 ar  
    61    27    33 ar  
    62    28    29 ar  
    63    28    63 1   
    64    29    30 ar  
    65    29    64 1   
    66    30    31 1   
    67    30    32 ar  
    68    31    65 1   
    69    32    33 ar  
    70    32    66 1   
    71    33    67 1   
@<TRIPOS>SUBSTRUCTURE
     1 61S         1 TEMP              0 ****  ****    0 ROOT
