@<TRIPOS>MOLECULE
61T
   54    57     1     0     0
SMALL
No Charge or Current Charge


@<TRIPOS>ATOM
      1 O3           3.3010    -2.8570    -2.1740 oh         1 61T      -0.645000
      2 O1           3.9760     4.7600     1.0930 o          1 61T      -0.533500
      3 O2           4.7230     2.4130     0.5280 os         1 61T      -0.587700
      4 O4           5.6210    -1.6500    -1.5270 oh         1 61T      -0.648000
      5 C5           1.2860    -4.0770     0.6200 cc         1 61T      -0.323000
      6 C6           0.5180    -5.2320     1.0190 cc         1 61T       0.417900
      7 C7          -1.3150    -4.0510     0.8540 cd         1 61T       0.424500
      8 C8          -2.6280    -3.7550     0.8900 cc         1 61T      -0.394600
      9 C9          -2.7360    -2.3840     0.5100 cc         1 61T       0.453200
     10 C10         -4.0040    -1.6360     0.4130 ca         1 61T      -0.110900
     11 C13         -6.4250    -0.1790     0.2230 ca         1 61T      -0.039000
     12 C14         -5.2090     0.4570    -0.0740 ca         1 61T      -0.153000
     13 C15         -4.0040    -0.2730     0.0270 ca         1 61T      -0.023000
     14 C16         -3.6340     2.6350    -1.3030 c3         1 61T       0.418000
     15 C17          3.1750    -1.5290    -1.6370 c5         1 61T       0.101300
     16 C18          4.5300    -0.7420    -1.6500 c5         1 61T       0.138300
     17 O            5.6420     4.3810    -0.8240 o          1 61T      -0.533500
     18 S            5.0530     4.0070     0.4600 s6         1 61T       1.405800
     19 N            6.2350     3.9450     1.5520 n8         1 61T      -1.055100
     20 C1           4.4450     0.2140    -0.4000 c5         1 61T      -0.070700
     21 C2           2.9890     0.0240     0.1340 c5         1 61T      -0.075400
     22 C3           2.8070    -1.4880    -0.1240 c5         1 61T       0.239500
     23 N1           1.3420    -1.7280    -0.0520 nu         1 61T      -0.954200
     24 C4           0.6840    -2.8680     0.3350 cd         1 61T       0.412000
     25 N2          -0.8080    -5.2920     1.1600 nd         1 61T      -0.687000
     26 N4          -0.7060    -2.8890     0.4650 na         1 61T       0.074900
     27 N3          -1.5580    -1.8120     0.2390 nd         1 61T      -0.632100
     28 C11         -5.2440    -2.2530     0.7000 ca         1 61T      -0.051000
     29 C12         -6.4420    -1.5270     0.6060 ca         1 61T      -0.128000
     30 S1          -5.2750     2.1940    -0.5560 ss         1 61T      -0.187000
     31 F2          -3.2740     1.7750    -2.2820 f          1 61T      -0.099000
     32 F           -3.6720     3.8680    -1.8550 f          1 61T      -0.099000
     33 F1          -2.6440     2.6500    -0.3820 f          1 61T      -0.099000
     34 H1           2.4250    -3.2830    -2.0420 ho         1 61T       0.455000
     35 H2           5.2430    -2.5050    -1.8470 ho         1 61T       0.462000
     36 H3           2.3590    -4.1920     0.5520 ha         1 61T       0.146000
     37 H4           1.0110    -6.1690     1.2390 h4         1 61T       0.025100
     38 H5          -3.4300    -4.4270     1.1560 ha         1 61T       0.228000
     39 H6          -7.3600     0.3730     0.1530 ha         1 61T       0.133000
     40 H7          -3.0580     0.2100    -0.1870 ha         1 61T       0.139000
     41 H8           2.4320    -0.9690    -2.2230 h1         1 61T       0.041700
     42 H9           4.6170    -0.1710    -2.5860 h1         1 61T       0.045700
     43 H10          5.7850     4.4810     2.2870 hn         1 61T       0.488000
     44 H11          6.0770     2.9790     1.8270 hn         1 61T       0.488000
     45 H12          4.1670     2.0810    -1.4700 h1         1 61T       0.046700
     46 H13          5.8670     1.7000    -1.0820 h1         1 61T       0.046700
     47 H14          5.1540    -0.1240     0.3660 hc         1 61T       0.106700
     48 H15          2.8950     0.2820     1.1950 hc         1 61T       0.060700
     49 H16          2.2730     0.6420    -0.4220 hc         1 61T       0.060700
     50 H17          3.4370    -2.1270     0.5150 h1         1 61T       0.095700
     51 H18          0.6880    -0.9530    -0.1910 hn         1 61T       0.521000
     52 H19         -5.2980    -3.2950     1.0000 ha         1 61T       0.125000
     53 H20         -7.3890    -2.0130     0.8320 ha         1 61T       0.124000
     54 C            4.8380     1.6760    -0.6990 c3         1 61T       0.207600
@<TRIPOS>BOND
     1     1    15 1   
     2     1    34 1   
     3     2    18 2   
     4     3    18 1   
     5     3    54 1   
     6     4    16 1   
     7     4    35 1   
     8     5     6 1   
     9     5    24 2   
    10     5    36 1   
    11     6    25 2   
    12     6    37 1   
    13     7     8 2   
    14     7    25 1   
    15     7    26 1   
    16     8     9 1   
    17     8    38 1   
    18     9    10 1   
    19     9    27 2   
    20    10    13 ar  
    21    10    28 ar  
    22    11    12 ar  
    23    11    29 ar  
    24    11    39 1   
    25    12    13 ar  
    26    12    30 1   
    27    13    40 1   
    28    14    30 1   
    29    14    31 1   
    30    14    32 1   
    31    14    33 1   
    32    15    16 1   
    33    15    22 1   
    34    15    41 1   
    35    16    20 1   
    36    16    42 1   
    37    17    18 2   
    38    18    19 1   
    39    19    43 1   
    40    19    44 1   
    41    20    21 1   
    42    20    47 1   
    43    20    54 1   
    44    21    22 1   
    45    21    48 1   
    46    21    49 1   
    47    22    23 1   
    48    22    50 1   
    49    23    24 1   
    50    23    51 1   
    51    24    26 1   
    52    26    27 1   
    53    28    29 ar  
    54    28    52 1   
    55    29    53 1   
    56    45    54 1   
    57    46    54 1   
@<TRIPOS>SUBSTRUCTURE
     1 61T         1 TEMP              0 ****  ****    0 ROOT
