@<TRIPOS>MOLECULE
61T
   54    57     1     0     0
SMALL
abcg2


@<TRIPOS>ATOM
      1 O3           3.2750    -2.6600    -2.2620 oh         1 61T      -0.645000
      2 O1           5.3040     4.2780    -0.4410 o          1 61T      -0.533500
      3 O2           4.6500     2.1760     0.6970 os         1 61T      -0.587700
      4 O4           5.6760    -2.0640    -0.9990 oh         1 61T      -0.648000
      5 C5           1.4340    -4.3410     0.0540 cc         1 61T      -0.323000
      6 C6           0.5970    -5.4520     0.1780 cc         1 61T       0.417900
      7 C7          -1.2440    -4.1910     0.4170 cd         1 61T       0.424500
      8 C8          -2.5410    -3.7320     0.5960 cc         1 61T      -0.394600
      9 C9          -2.4390    -2.3350     0.5720 cc         1 61T       0.453200
     10 C10         -3.5150    -1.3500     0.7170 ca         1 61T      -0.110900
     11 C13         -5.5670     0.5350     1.0060 ca         1 61T      -0.039000
     12 C14         -4.2710     0.9380     0.7020 ca         1 61T      -0.153000
     13 C15         -3.2500     0.0100     0.5630 ca         1 61T      -0.023000
     14 C16         -4.1720     2.8510    -1.2220 c3         1 61T       0.418000
     15 C17          3.3830    -1.4850    -1.5100 c5         1 61T       0.101300
     16 C18          4.8210    -0.9910    -1.3090 c5         1 61T       0.138300
     17 O            4.4170     4.2170     1.9130 o          1 61T      -0.533500
     18 S            4.3940     3.7500     0.5500 s6         1 61T       1.405800
     19 N            2.8860     3.9460    -0.0270 n8         1 61T      -1.055100
     20 C1           4.7210    -0.0690    -0.0780 c5         1 61T      -0.070700
     21 C2           3.3900    -0.4270     0.6190 c5         1 61T      -0.075400
     22 C3           2.9070    -1.6970    -0.0760 c5         1 61T       0.239500
     23 N1           1.4880    -1.8910     0.0670 nu         1 61T      -0.954200
     24 C4           0.8770    -3.0720     0.1260 cd         1 61T       0.412000
     25 N2          -0.7070    -5.4160     0.3550 nd         1 61T      -0.687000
     26 N4          -0.4760    -3.0480     0.3000 na         1 61T       0.074900
     27 N3          -1.1880    -1.9250     0.3930 nd         1 61T      -0.632100
     28 C11         -4.8170    -1.7510     1.0150 ca         1 61T      -0.051000
     29 C12         -5.8320    -0.8180     1.1600 ca         1 61T      -0.128000
     30 S1          -3.9040     2.6670     0.5440 ss         1 61T      -0.187000
     31 F2          -5.4190     2.5600    -1.5920 f          1 61T      -0.099000
     32 F           -3.9310     4.1220    -1.5340 f          1 61T      -0.099000
     33 F1          -3.3660     2.0830    -1.9550 f          1 61T      -0.099000
     34 H1           3.3180    -2.4370    -3.1970 ho         1 61T       0.455000
     35 H2           5.4830    -2.7770    -1.6200 ho         1 61T       0.462000
     36 H3           2.4910    -4.4770    -0.1090 ha         1 61T       0.146000
     37 H4           1.0460    -6.4380     0.1210 h4         1 61T       0.025100
     38 H5          -3.4190    -4.3440     0.7200 ha         1 61T       0.228000
     39 H6          -6.3550     1.2660     1.1260 ha         1 61T       0.133000
     40 H7          -2.2450     0.3420     0.3390 ha         1 61T       0.139000
     41 H8           2.7900    -0.6690    -1.9490 h1         1 61T       0.041700
     42 H9           5.1810    -0.4520    -2.1970 h1         1 61T       0.045700
     43 H10          2.7630     3.7650    -1.0160 hn         1 61T       0.488000
     44 H11          2.1490     3.5490     0.5440 hn         1 61T       0.488000
     45 H12          3.9960     1.6180    -1.2080 h1         1 61T       0.046700
     46 H13          5.7540     1.6070    -0.9670 h1         1 61T       0.046700
     47 H14          5.5680    -0.2760     0.5800 hc         1 61T       0.106700
     48 H15          3.5000    -0.5620     1.6940 hc         1 61T       0.060700
     49 H16          2.6490     0.3650     0.4710 hc         1 61T       0.060700
     50 H17          3.4210    -2.5630     0.3480 h1         1 61T       0.095700
     51 H18          0.8940    -1.0740     0.0920 hn         1 61T       0.521000
     52 H19         -5.0450    -2.8000     1.1470 ha         1 61T       0.125000
     53 H20         -6.8350    -1.1470     1.3970 ha         1 61T       0.124000
     54 C            4.7950     1.3840    -0.4960 c3         1 61T       0.207600
@<TRIPOS>BOND
     1     1    15 1   
     2     1    34 1   
     3     2    18 2   
     4     3    18 1   
     5     3    54 1   
     6     4    16 1   
     7     4    35 1   
     8     5     6 1   
     9     5    24 2   
    10     5    36 1   
    11     6    25 2   
    12     6    37 1   
    13     7     8 2   
    14     7    25 1   
    15     7    26 1   
    16     8     9 1   
    17     8    38 1   
    18     9    10 1   
    19     9    27 2   
    20    10    13 ar  
    21    10    28 ar  
    22    11    12 ar  
    23    11    29 ar  
    24    11    39 1   
    25    12    13 ar  
    26    12    30 1   
    27    13    40 1   
    28    14    30 1   
    29    14    31 1   
    30    14    32 1   
    31    14    33 1   
    32    15    16 1   
    33    15    22 1   
    34    15    41 1   
    35    16    20 1   
    36    16    42 1   
    37    17    18 2   
    38    18    19 1   
    39    19    43 1   
    40    19    44 1   
    41    20    21 1   
    42    20    47 1   
    43    20    54 1   
    44    21    22 1   
    45    21    48 1   
    46    21    49 1   
    47    22    23 1   
    48    22    50 1   
    49    23    24 1   
    50    23    51 1   
    51    24    26 1   
    52    26    27 1   
    53    28    29 ar  
    54    28    52 1   
    55    29    53 1   
    56    45    54 1   
    57    46    54 1   
@<TRIPOS>SUBSTRUCTURE
     1 61T         1 TEMP              0 ****  ****    0 ROOT
