@<TRIPOS>MOLECULE
61U
   67    71     1     0     0
SMALL
abcg2


@<TRIPOS>ATOM
      1 N1          52.0120   -34.3330    57.3430 n3         1 61U      -0.715600
      2 N3          55.2990   -36.3530    48.9280 nu         1 61U      -0.945900
      3 C4          51.6570   -36.4080    55.3180 c6         1 61U      -0.082700
      4 C5          51.6100   -36.7000    56.8170 c6         1 61U      -0.071900
      5 C6          52.4480   -35.6930    57.5910 c6         1 61U       0.165300
      6 C7          50.8190   -37.3970    54.4680 c3         1 61U       0.138700
      7 C8          51.2760   -38.8450    54.6720 c3         1 61U      -0.116100
      8 C10         49.9000   -36.6960    52.1740 ca         1 61U      -0.149000
      9 C13         51.8210   -36.0890    49.0550 ca         1 61U       0.413900
     10 C15         56.5020   -36.4970    49.5980 ca         1 61U       0.316000
     11 C17         58.7340   -37.4890    49.6930 ca         1 61U       0.356000
     12 C20         61.1320   -37.5320    47.3960 c6         1 61U       0.119100
     13 C21         61.0310   -37.8400    48.8830 c6         1 61U       0.167300
     14 C22         58.9640   -36.7560    50.8770 ca         1 61U      -0.062000
     15 C24         56.8110   -35.7240    50.7210 ca         1 61U       0.110000
     16 C26         53.8060   -36.7830    50.7960 ca         1 61U      -0.189000
     17 C1          52.7500   -33.3880    58.1470 c3         1 61U       0.153100
     18 C2          52.1040   -34.0130    55.9320 c6         1 61U       0.165300
     19 C3          51.2530   -34.9520    55.0910 c6         1 61U      -0.071900
     20 O1          49.4410   -37.2770    54.7490 oh         1 61U      -0.665000
     21 C9          51.0000   -37.0440    52.9980 ca         1 61U       0.403300
     22 C11         50.1350   -36.3770    50.8660 ca         1 61U      -0.043000
     23 C12         51.4540   -36.3980    50.3800 ca         1 61U      -0.182000
     24 N2          53.0520   -36.0850    48.6270 nb         1 61U      -0.716000
     25 C14         54.0410   -36.4100    49.4910 ca         1 61U       0.598900
     26 C16         57.4780   -37.3520    49.0970 ca         1 61U      -0.211000
     27 N4          59.7030   -38.3510    49.2150 nh         1 61U      -0.805400
     28 C18         59.3400   -39.4560    48.3420 c6         1 61U       0.167300
     29 C19         59.5040   -39.1100    46.8700 c6         1 61U       0.119100
     30 O2          60.8140   -38.6560    46.6070 os         1 61U      -0.440000
     31 C23         58.0090   -35.8630    51.3700 ca         1 61U      -0.069000
     32 F           55.9220   -34.8260    51.1660 f          1 61U      -0.161000
     33 C25         60.1360   -36.9790    51.6490 cg         1 61U       0.338000
     34 N5          61.0700   -37.1670    52.2980 n1         1 61U      -0.460000
     35 C27         52.4860   -36.7600    51.2740 ca         1 61U       0.334000
     36 N6          52.2330   -37.0840    52.5600 nb         1 61U      -0.690000
     37 H2          55.3200   -36.4820    47.9270 hn         1 61U       0.509000
     38 H3          52.6970   -36.5240    54.9910 hc         1 61U       0.072700
     39 H4          50.5800   -36.6530    57.1840 hc         1 61U       0.048700
     40 H5          51.9880   -37.7000    57.0380 hc         1 61U       0.048700
     41 H6          52.3680   -35.8970    58.6620 h1         1 61U       0.030950
     42 H7          53.5120   -35.8280    57.3220 h1         1 61U       0.030950
     43 H8          51.0620   -39.1840    55.6880 hc         1 61U       0.048033
     44 H9          50.7560   -39.5130    53.9850 hc         1 61U       0.048033
     45 H10         52.3460   -38.9490    54.5040 hc         1 61U       0.048033
     46 H11         48.8980   -36.6790    52.5720 ha         1 61U       0.148000
     47 H12         51.0490   -35.8320    48.3350 h4         1 61U       0.022100
     48 H14         60.4710   -36.6870    47.1520 h1         1 61U       0.053200
     49 H15         61.7760   -38.5900    49.1620 h1         1 61U       0.069450
     50 H16         61.2580   -36.9330    49.4410 h1         1 61U       0.069450
     51 H17         54.5940   -37.1100    51.4590 ha         1 61U       0.145000
     52 H18         52.6300   -33.6210    59.2070 h1         1 61U       0.029700
     53 H19         53.8300   -33.3790    57.9270 h1         1 61U       0.029700
     54 H20         52.3700   -32.3780    57.9830 h1         1 61U       0.029700
     55 H21         53.1510   -34.0580    55.5800 h1         1 61U       0.030950
     56 H22         51.7690   -32.9830    55.7840 h1         1 61U       0.030950
     57 H23         51.3640   -34.6690    54.0410 hc         1 61U       0.048700
     58 H24         50.2010   -34.8140    55.3510 hc         1 61U       0.048700
     59 H25         49.2740   -37.6280    55.6290 ho         1 61U       0.454000
     60 H26         49.3200   -36.1060    50.2050 ha         1 61U       0.121000
     61 H27         57.2370   -37.9090    48.2020 ha         1 61U       0.123000
     62 H28         58.3240   -39.7920    48.5530 h1         1 61U       0.069450
     63 H29         60.0010   -40.2940    48.5860 h1         1 61U       0.069450
     64 H30         58.7700   -38.3490    46.5710 h1         1 61U       0.053200
     65 H31         59.3350   -39.9960    46.2570 h1         1 61U       0.053200
     66 H32         58.2120   -35.2810    52.2600 ha         1 61U       0.144000
     67 H13         62.1540   -37.2370    47.1490 h1         1 61U       0.053200
@<TRIPOS>BOND
     1     1     5 1   
     2     1    17 1   
     3     1    18 1   
     4     2    10 1   
     5     2    25 1   
     6     2    37 1   
     7     3     4 1   
     8     3     6 1   
     9     3    19 1   
    10     3    38 1   
    11     4     5 1   
    12     4    39 1   
    13     4    40 1   
    14     5    41 1   
    15     5    42 1   
    16     6     7 1   
    17     6    20 1   
    18     6    21 1   
    19     7    43 1   
    20     7    44 1   
    21     7    45 1   
    22     8    21 ar  
    23     8    22 ar  
    24     8    46 1   
    25     9    23 ar  
    26     9    24 ar  
    27     9    47 1   
    28    10    15 ar  
    29    10    26 ar  
    30    11    14 ar  
    31    11    26 ar  
    32    11    27 1   
    33    12    13 1   
    34    12    30 1   
    35    12    48 1   
    36    12    67 1   
    37    13    27 1   
    38    13    49 1   
    39    13    50 1   
    40    14    31 ar  
    41    14    33 1   
    42    15    31 ar  
    43    15    32 1   
    44    16    25 ar  
    45    16    35 ar  
    46    16    51 1   
    47    17    52 1   
    48    17    53 1   
    49    17    54 1   
    50    18    19 1   
    51    18    55 1   
    52    18    56 1   
    53    19    57 1   
    54    19    58 1   
    55    20    59 1   
    56    21    36 ar  
    57    22    23 ar  
    58    22    60 1   
    59    23    35 ar  
    60    24    25 ar  
    61    26    61 1   
    62    27    28 1   
    63    28    29 1   
    64    28    62 1   
    65    28    63 1   
    66    29    30 1   
    67    29    64 1   
    68    29    65 1   
    69    31    66 1   
    70    33    34 3   
    71    35    36 ar  
@<TRIPOS>SUBSTRUCTURE
     1 61U         1 TEMP              0 ****  ****    0 ROOT
