@<TRIPOS>MOLECULE
61U
   67    71     1     0     0
SMALL
No Charge or Current Charge


@<TRIPOS>ATOM
      1 N1          51.1520   -34.2380    57.7220 n3         1 61U      -0.715600
      2 N3          55.6530   -36.3890    49.1960 nu         1 61U      -0.945900
      3 C4          51.3500   -36.3190    55.5840 c6         1 61U      -0.082700
      4 C5          51.1240   -36.6690    57.0890 c6         1 61U      -0.071900
      5 C6          51.7160   -35.5810    58.0200 c6         1 61U       0.165300
      6 C7          50.7840   -37.3900    54.5670 c3         1 61U       0.138700
      7 C8          51.3670   -38.8070    54.8270 c3         1 61U      -0.116100
      8 C10         50.1140   -36.4830    52.2190 ca         1 61U      -0.149000
      9 C13         52.2330   -35.8250    49.2480 ca         1 61U       0.413900
     10 C15         56.9410   -36.5590    49.7180 ca         1 61U       0.316000
     11 C17         59.1660   -37.5220    49.4060 ca         1 61U       0.356000
     12 C20         61.0750   -37.7850    46.3420 c6         1 61U       0.119100
     13 C21         61.1990   -37.6580    47.8900 c6         1 61U       0.167300
     14 C22         59.5820   -36.9620    50.6370 ca         1 61U      -0.062000
     15 C24         57.3700   -35.9840    50.9410 ca         1 61U       0.110000
     16 C26         54.0860   -36.7440    51.0370 ca         1 61U      -0.189000
     17 C1          51.6210   -33.2090    58.6740 c3         1 61U       0.153100
     18 C2          51.3980   -33.8520    56.3070 c6         1 61U       0.165300
     19 C3          50.8000   -34.8830    55.3190 c6         1 61U      -0.071900
     20 O1          49.3620   -37.5270    54.7650 oh         1 61U      -0.665000
     21 C9          51.1130   -36.9640    53.0960 ca         1 61U       0.403300
     22 C11         50.4610   -36.0930    50.9180 ca         1 61U      -0.043000
     23 C12         51.8090   -36.1900    50.5370 ca         1 61U      -0.182000
     24 N2          53.5200   -35.9040    48.8490 nb         1 61U      -0.716000
     25 C14         54.4030   -36.3340    49.7430 ca         1 61U       0.598900
     26 C16         57.8510   -37.3060    48.9600 ca         1 61U      -0.211000
     27 N4          60.0380   -38.2900    48.5990 nh         1 61U      -0.805400
     28 C18         59.6420   -39.6400    48.0770 c6         1 61U       0.167300
     29 C19         59.5930   -39.6740    46.5200 c6         1 61U       0.119100
     30 O2          60.8190   -39.1550    45.9550 os         1 61U      -0.440000
     31 C23         58.6810   -36.1900    51.3960 ca         1 61U      -0.069000
     32 F           56.5500   -35.1920    51.6730 f          1 61U      -0.161000
     33 C25         60.9110   -37.1710    51.1420 cg         1 61U       0.338000
     34 N5          61.9880   -37.3270    51.5680 n1         1 61U      -0.460000
     35 C27         52.7580   -36.6670    51.4580 ca         1 61U       0.334000
     36 N6          52.4160   -37.0440    52.7070 nb         1 61U      -0.690000
     37 H2          55.5960   -36.3480    48.1820 hn         1 61U       0.509000
     38 H3          52.4360   -36.2920    55.4150 hc         1 61U       0.072700
     39 H4          50.0520   -36.7750    57.3050 hc         1 61U       0.048700
     40 H5          51.5930   -37.6290    57.3400 hc         1 61U       0.048700
     41 H6          51.5040   -35.8590    59.0630 h1         1 61U       0.030950
     42 H7          52.8100   -35.5680    57.9050 h1         1 61U       0.030950
     43 H8          51.0160   -39.2260    55.7770 hc         1 61U       0.048033
     44 H9          51.0640   -39.4980    54.0310 hc         1 61U       0.048033
     45 H10         52.4630   -38.7840    54.8540 hc         1 61U       0.048033
     46 H11         49.0810   -36.4100    52.5430 ha         1 61U       0.148000
     47 H12         51.5200   -35.4610    48.5080 h4         1 61U       0.022100
     48 H14         60.2540   -37.1490    45.9820 h1         1 61U       0.053200
     49 H15         62.1380   -38.1310    48.2140 h1         1 61U       0.069450
     50 H16         61.2780   -36.5920    48.1490 h1         1 61U       0.069450
     51 H17         54.8490   -37.1270    51.7030 ha         1 61U       0.145000
     52 H18         51.3730   -33.4930    59.7050 h1         1 61U       0.029700
     53 H19         52.7090   -33.0770    58.6050 h1         1 61U       0.029700
     54 H20         51.1430   -32.2420    58.4660 h1         1 61U       0.029700
     55 H21         52.4780   -33.7610    56.1200 h1         1 61U       0.030950
     56 H22         50.9510   -32.8680    56.0990 h1         1 61U       0.030950
     57 H23         51.0330   -34.5610    54.2960 hc         1 61U       0.048700
     58 H24         49.7050   -34.8730    55.4080 hc         1 61U       0.048700
     59 H25         49.2230   -37.7350    55.7130 ho         1 61U       0.454000
     60 H26         49.7030   -35.7240    50.2290 ha         1 61U       0.121000
     61 H27         57.5360   -37.7300    48.0130 ha         1 61U       0.123000
     62 H28         58.6590   -39.9400    48.4710 h1         1 61U       0.069450
     63 H29         60.3600   -40.3970    48.4250 h1         1 61U       0.069450
     64 H30         58.7470   -39.0700    46.1600 h1         1 61U       0.053200
     65 H31         59.4440   -40.7070    46.1750 h1         1 61U       0.053200
     66 H32         58.9950   -35.7430    52.3380 ha         1 61U       0.144000
     67 H13         62.0040   -37.4420    45.8650 h1         1 61U       0.053200
@<TRIPOS>BOND
     1     1     5 1   
     2     1    17 1   
     3     1    18 1   
     4     2    10 1   
     5     2    25 1   
     6     2    37 1   
     7     3     4 1   
     8     3     6 1   
     9     3    19 1   
    10     3    38 1   
    11     4     5 1   
    12     4    39 1   
    13     4    40 1   
    14     5    41 1   
    15     5    42 1   
    16     6     7 1   
    17     6    20 1   
    18     6    21 1   
    19     7    43 1   
    20     7    44 1   
    21     7    45 1   
    22     8    21 ar  
    23     8    22 ar  
    24     8    46 1   
    25     9    23 ar  
    26     9    24 ar  
    27     9    47 1   
    28    10    15 ar  
    29    10    26 ar  
    30    11    14 ar  
    31    11    26 ar  
    32    11    27 1   
    33    12    13 1   
    34    12    30 1   
    35    12    48 1   
    36    12    67 1   
    37    13    27 1   
    38    13    49 1   
    39    13    50 1   
    40    14    31 ar  
    41    14    33 1   
    42    15    31 ar  
    43    15    32 1   
    44    16    25 ar  
    45    16    35 ar  
    46    16    51 1   
    47    17    52 1   
    48    17    53 1   
    49    17    54 1   
    50    18    19 1   
    51    18    55 1   
    52    18    56 1   
    53    19    57 1   
    54    19    58 1   
    55    20    59 1   
    56    21    36 ar  
    57    22    23 ar  
    58    22    60 1   
    59    23    35 ar  
    60    24    25 ar  
    61    26    61 1   
    62    27    28 1   
    63    28    29 1   
    64    28    62 1   
    65    28    63 1   
    66    29    30 1   
    67    29    64 1   
    68    29    65 1   
    69    31    66 1   
    70    33    34 3   
    71    35    36 ar  
@<TRIPOS>SUBSTRUCTURE
     1 61U         1 TEMP              0 ****  ****    0 ROOT
