@<TRIPOS>MOLECULE
61W
   43    45     1     0     0
SMALL
No Charge or Current Charge


@<TRIPOS>ATOM
      1 C10          0.2950     0.4050     0.1380 cc         1 61W       0.242800
      2 C11         -0.8780     0.2430    -0.5290 cd         1 61W      -0.238000
      3 C12         -1.8770     0.0380     0.4430 cd         1 61W       0.338500
      4 C15         -3.3200    -0.1840     0.1920 ca         1 61W      -0.144500
      5 C16         -4.1940    -0.5370     1.2470 ca         1 61W      -0.076500
      6 C17         -5.5650    -0.7340     1.0080 ca         1 61W      -0.118500
      7 C18         -6.0930    -0.5800    -0.2850 ca         1 61W      -0.059300
      8 C19         -5.2340    -0.2180    -1.3370 ca         1 61W      -0.118500
      9 C20         -3.8620    -0.0200    -1.1020 ca         1 61W      -0.076500
     10 C21         -7.5780    -0.7890    -0.5410 c3         1 61W      -0.049800
     11 C01          7.4080    -1.7870     1.1080 c3         1 61W      -0.091100
     12 C02          6.4050    -1.1940     0.1000 c3         1 61W      -0.077400
     13 N04          4.0560    -0.2210    -0.1610 n3         1 61W      -0.718600
     14 C05          4.4240     0.9450    -1.0140 c6         1 61W       0.165800
     15 C06          3.3610     1.1810    -2.1140 c6         1 61W      -0.047200
     16 C07          1.9410     1.0910    -1.5780 c2         1 61W      -0.158200
     17 C08          1.6590     0.5880    -0.3530 ce         1 61W      -0.192000
     18 C09          2.7750     0.0430     0.5540 c6         1 61W       0.210000
     19 N13         -1.3750     0.0490     1.6670 nc         1 61W      -0.366300
     20 O14          0.0390     0.2750     1.4820 os         1 61W      -0.071700
     21 H1          -1.0020     0.2570    -1.6030 ha         1 61W       0.151000
     22 H2          -3.8180    -0.6650     2.2600 ha         1 61W       0.122500
     23 H3          -6.2190    -1.0070     1.8340 ha         1 61W       0.113500
     24 H4          -5.6300    -0.0860    -2.3420 ha         1 61W       0.113500
     25 H5          -3.2290     0.2660    -1.9380 ha         1 61W       0.122500
     26 H6          -8.1310     0.1490    -0.4160 hc         1 61W       0.044367
     27 H7          -7.7600    -1.1530    -1.5590 hc         1 61W       0.044367
     28 H8          -8.0030    -1.5240     0.1520 hc         1 61W       0.044367
     29 H9           7.7250    -1.0260     1.8320 hc         1 61W       0.033367
     30 H10          6.9590    -2.6230     1.6580 hc         1 61W       0.033367
     31 H11          8.2990    -2.1580     0.5880 hc         1 61W       0.033367
     32 H12          6.9060    -0.3940    -0.4560 hc         1 61W       0.045200
     33 H13          6.1280    -1.9690    -0.6250 hc         1 61W       0.045200
     34 H14          4.7310    -1.4490     1.4190 h1         1 61W       0.031700
     35 H15          5.4010     0.1830     1.4360 h1         1 61W       0.031700
     36 H17          4.5110     1.8510    -0.3950 h1         1 61W       0.036200
     37 H18          5.3940     0.7950    -1.5080 h1         1 61W       0.036200
     38 H19          3.5270     2.1590    -2.5850 hc         1 61W       0.059200
     39 H20          3.4890     0.4290    -2.9040 hc         1 61W       0.059200
     40 H21          1.1500     1.4390    -2.2450 ha         1 61W       0.177000
     41 H24          2.4250    -0.8820     1.0370 h1         1 61W       0.052200
     42 H25          2.9420     0.7730     1.3610 h1         1 61W       0.052200
     43 C03          5.1240    -0.6500     0.7760 c3         1 61W       0.168800
@<TRIPOS>BOND
     1     1     2 2   
     2     1    17 1   
     3     1    20 1   
     4     2     3 1   
     5     2    21 1   
     6     3     4 1   
     7     3    19 2   
     8     4     5 ar  
     9     4     9 ar  
    10     5     6 ar  
    11     5    22 1   
    12     6     7 ar  
    13     6    23 1   
    14     7     8 ar  
    15     7    10 1   
    16     8     9 ar  
    17     8    24 1   
    18     9    25 1   
    19    10    26 1   
    20    10    27 1   
    21    10    28 1   
    22    11    12 1   
    23    11    29 1   
    24    11    30 1   
    25    11    31 1   
    26    12    32 1   
    27    12    33 1   
    28    12    43 1   
    29    13    14 1   
    30    13    18 1   
    31    13    43 1   
    32    14    15 1   
    33    14    36 1   
    34    14    37 1   
    35    15    16 1   
    36    15    38 1   
    37    15    39 1   
    38    16    17 2   
    39    16    40 1   
    40    17    18 1   
    41    18    41 1   
    42    18    42 1   
    43    19    20 1   
    44    34    43 1   
    45    35    43 1   
@<TRIPOS>SUBSTRUCTURE
     1 61W         1 TEMP              0 ****  ****    0 ROOT
