@<TRIPOS>MOLECULE
61W
   43    45     1     0     0
SMALL
abcg2


@<TRIPOS>ATOM
      1 C10          0.3100     0.0040    -0.1460 cc         1 61W       0.242800
      2 C11         -0.8850     0.1110    -0.7870 cd         1 61W      -0.238000
      3 C12         -1.8390    -0.2270     0.2060 cd         1 61W       0.338500
      4 C15         -3.2970    -0.2850     0.0800 ca         1 61W      -0.144500
      5 C16         -4.0950    -0.7040     1.1470 ca         1 61W      -0.076500
      6 C17         -5.4710    -0.7580     1.0180 ca         1 61W      -0.118500
      7 C18         -6.1020    -0.3970    -0.1730 ca         1 61W      -0.059300
      8 C19         -5.3010     0.0180    -1.2340 ca         1 61W      -0.118500
      9 C20         -3.9210     0.0750    -1.1120 ca         1 61W      -0.076500
     10 C21         -7.5960    -0.4340    -0.2980 c3         1 61W      -0.049800
     11 C01          7.3970    -1.4210     1.3130 c3         1 61W      -0.091100
     12 C02          6.4260    -0.9950     0.2190 c3         1 61W      -0.077400
     13 N04          4.0720    -0.2670    -0.1940 n3         1 61W      -0.718600
     14 C05          4.3480     0.9300    -0.9650 c6         1 61W       0.165800
     15 C06          3.3970     1.0070    -2.1490 c6         1 61W      -0.047200
     16 C07          1.9930     0.7320    -1.7330 c2         1 61W      -0.158200
     17 C08          1.6950     0.2020    -0.5440 ce         1 61W      -0.192000
     18 C09          2.7700    -0.1910     0.4340 c6         1 61W       0.210000
     19 N13         -1.2480    -0.5110     1.3370 nc         1 61W      -0.366300
     20 O14          0.0840    -0.3690     1.1190 os         1 61W      -0.071700
     21 H1          -1.0600     0.3810    -1.8140 ha         1 61W       0.151000
     22 H2          -3.6380    -0.9970     2.0830 ha         1 61W       0.122500
     23 H3          -6.0660    -1.0920     1.8590 ha         1 61W       0.113500
     24 H4          -5.7590     0.3020    -2.1730 ha         1 61W       0.113500
     25 H5          -3.3360     0.4030    -1.9610 ha         1 61W       0.122500
     26 H6          -8.0330     0.5250    -0.0130 hc         1 61W       0.044367
     27 H7          -7.9070    -0.6410    -1.3220 hc         1 61W       0.044367
     28 H8          -8.0320    -1.1940     0.3500 hc         1 61W       0.044367
     29 H9           7.5680    -0.6140     2.0270 hc         1 61W       0.033367
     30 H10          7.0160    -2.2790     1.8700 hc         1 61W       0.033367
     31 H11          8.3640    -1.7020     0.8960 hc         1 61W       0.033367
     32 H12          6.8760    -0.1820    -0.3560 hc         1 61W       0.045200
     33 H13          6.2620    -1.8180    -0.4810 hc         1 61W       0.045200
     34 H14          4.7060    -1.3890     1.4140 h1         1 61W       0.031700
     35 H15          5.2400     0.2810     1.4930 h1         1 61W       0.031700
     36 H17          4.2550     1.8410    -0.3490 h1         1 61W       0.036200
     37 H18          5.3730     0.9030    -1.3320 h1         1 61W       0.036200
     38 H19          3.4540     1.9940    -2.6140 hc         1 61W       0.059200
     39 H20          3.6950     0.2930    -2.9240 hc         1 61W       0.059200
     40 H21          1.2040     0.9910    -2.4300 ha         1 61W       0.177000
     41 H24          2.5380    -1.1720     0.8590 h1         1 61W       0.052200
     42 H25          2.7600     0.5190     1.2810 h1         1 61W       0.052200
     43 C03          5.0870    -0.5660     0.8020 c3         1 61W       0.168800
@<TRIPOS>BOND
     1     1     2 2   
     2     1    17 1   
     3     1    20 1   
     4     2     3 1   
     5     2    21 1   
     6     3     4 1   
     7     3    19 2   
     8     4     5 ar  
     9     4     9 ar  
    10     5     6 ar  
    11     5    22 1   
    12     6     7 ar  
    13     6    23 1   
    14     7     8 ar  
    15     7    10 1   
    16     8     9 ar  
    17     8    24 1   
    18     9    25 1   
    19    10    26 1   
    20    10    27 1   
    21    10    28 1   
    22    11    12 1   
    23    11    29 1   
    24    11    30 1   
    25    11    31 1   
    26    12    32 1   
    27    12    33 1   
    28    12    43 1   
    29    13    14 1   
    30    13    18 1   
    31    13    43 1   
    32    14    15 1   
    33    14    36 1   
    34    14    37 1   
    35    15    16 1   
    36    15    38 1   
    37    15    39 1   
    38    16    17 2   
    39    16    40 1   
    40    17    18 1   
    41    18    41 1   
    42    18    42 1   
    43    19    20 1   
    44    34    43 1   
    45    35    43 1   
@<TRIPOS>SUBSTRUCTURE
     1 61W         1 TEMP              0 ****  ****    0 ROOT
