@<TRIPOS>MOLECULE
61X
   47    50     1     0     0
SMALL
bcc


@<TRIPOS>ATOM
      1 C1           3.2370    -3.3350    -0.8750 c3         1 61X      -0.225300
      2 F1          -6.6350     0.1960    -0.2310 f          1 61X      -0.231633
      3 N1          -4.1430     1.2670    -1.1450 nb         1 61X      -0.657000
      4 O1           5.4750    -3.2180     0.5070 o          1 61X      -0.593800
      5 S1           4.2100    -2.5040     0.3580 sy         1 61X       1.086300
      6 C2           4.5450    -0.9180    -0.3730 ca         1 61X      -0.229500
      7 F2          -6.4780    -1.9280     0.0210 f          1 61X      -0.231633
      8 O2           3.3790    -2.2960     1.5420 o          1 61X      -0.593800
      9 C3           5.6490    -0.7740    -1.1960 ca         1 61X      -0.067000
     10 F3          -5.7630    -1.0180    -1.7840 f          1 61X      -0.231633
     11 C4           5.8790     0.4720    -1.7660 ca         1 61X      -0.113000
     12 C5           5.0320     1.5360    -1.5130 ca         1 61X      -0.106000
     13 C6           3.9300     1.3660    -0.6760 ca         1 61X       0.123100
     14 C7           3.6760     0.1300    -0.0970 ca         1 61X      -0.118000
     15 C8           2.0590     2.3580     0.3490 ca         1 61X       0.087100
     16 C9           2.2000     2.5810     1.7090 ca         1 61X      -0.121000
     17 C10          1.0760     2.5030     2.5190 ca         1 61X      -0.116000
     18 C11         -0.1640     2.1970     1.9780 ca         1 61X      -0.109000
     19 C12         -0.2950     1.9730     0.6090 cp         1 61X      -0.044000
     20 C13          0.8280     2.0570    -0.2090 ca         1 61X      -0.121000
     21 C14         -1.6150     1.6930     0.0060 cp         1 61X       0.016000
     22 C15         -2.1150     2.5240    -0.9620 ca         1 61X      -0.241300
     23 C16         -3.3860     2.2670    -1.5050 ca         1 61X       0.436200
     24 C17         -3.6730     0.4150    -0.2090 ca         1 61X       0.433600
     25 C18         -2.4010     0.5740     0.3990 ca         1 61X      -0.144300
     26 C19         -1.9580    -0.3920     1.3320 ca         1 61X      -0.079000
     27 C20         -2.7570    -1.4460     1.6710 ca         1 61X      -0.140000
     28 C21         -4.0320    -1.5910     1.0960 ca         1 61X      -0.057000
     29 C22         -4.4850    -0.6890     0.1720 ca         1 61X      -0.241600
     30 C23         -5.8360    -0.8530    -0.4580 c3         1 61X       0.734200
     31 H1           2.9880    -4.3200    -0.4820 h1         1 61X       0.103367
     32 H1A          2.3290    -2.7680    -1.0670 h1         1 61X       0.103367
     33 H1B          3.8210    -3.4330    -1.7880 h1         1 61X       0.103367
     34 H3           6.3180    -1.5990    -1.3950 ha         1 61X       0.158000
     35 H4           6.7330     0.6160    -2.4140 ha         1 61X       0.142000
     36 H5           5.2190     2.5040    -1.9580 ha         1 61X       0.152000
     37 H7           2.8310    -0.0220     0.5610 ha         1 61X       0.166000
     38 H9           3.1690     2.8180     2.1280 ha         1 61X       0.153000
     39 H10          1.1680     2.6840     3.5820 ha         1 61X       0.144000
     40 H11         -1.0330     2.1530     2.6220 ha         1 61X       0.145000
     41 H13          0.7440     1.8820    -1.2750 ha         1 61X       0.152000
     42 H15         -1.5580     3.3890    -1.2970 ha         1 61X       0.150000
     43 H16         -3.7840     2.9330    -2.2630 h4         1 61X       0.028100
     44 H19         -0.9740    -0.3020     1.7720 ha         1 61X       0.148000
     45 H20         -2.4110    -2.1840     2.3820 ha         1 61X       0.145000
     46 H21         -4.6380    -2.4340     1.3970 ha         1 61X       0.154000
     47 O3           3.1550     2.4610    -0.4740 os         1 61X      -0.251200
@<TRIPOS>BOND
     1     1     5 1   
     2     1    31 1   
     3     1    32 1   
     4     1    33 1   
     5     2    30 1   
     6     3    23 ar  
     7     3    24 ar  
     8     4     5 2   
     9     5     6 1   
    10     5     8 2   
    11     6     9 ar  
    12     6    14 ar  
    13     7    30 1   
    14     9    11 ar  
    15     9    34 1   
    16    10    30 1   
    17    11    12 ar  
    18    11    35 1   
    19    12    13 ar  
    20    12    36 1   
    21    13    14 ar  
    22    13    47 1   
    23    14    37 1   
    24    15    16 ar  
    25    15    20 ar  
    26    15    47 1   
    27    16    17 ar  
    28    16    38 1   
    29    17    18 ar  
    30    17    39 1   
    31    18    19 ar  
    32    18    40 1   
    33    19    20 ar  
    34    19    21 1   
    35    20    41 1   
    36    21    22 ar  
    37    21    25 ar  
    38    22    23 ar  
    39    22    42 1   
    40    23    43 1   
    41    24    25 ar  
    42    24    29 ar  
    43    25    26 ar  
    44    26    27 ar  
    45    26    44 1   
    46    27    28 ar  
    47    27    45 1   
    48    28    29 ar  
    49    28    46 1   
    50    29    30 1   
@<TRIPOS>SUBSTRUCTURE
     1 61X         1 TEMP              0 ****  ****    0 ROOT
