@<TRIPOS>MOLECULE
61X
   47    50     1     0     0
SMALL
No Charge or Current Charge


@<TRIPOS>ATOM
      1 C1           2.0310    -2.8760    -0.9660 c3         1 61X      -0.336100
      2 F1          -6.0880    -0.5010    -0.9420 f          1 61X      -0.110333
      3 N1          -3.4240     0.6590    -1.5490 nb         1 61X      -0.657000
      4 O1           4.5220    -3.6870    -0.8080 o          1 61X      -0.523000
      5 S1           3.6260    -2.7170    -0.1650 sy         1 61X       1.055500
      6 C2           4.1440    -1.0420    -0.6140 ca         1 61X      -0.229500
      7 F2          -5.8590    -2.4950    -0.1360 f          1 61X      -0.110333
      8 O2           3.3680    -2.7610     1.2810 o          1 61X      -0.523000
      9 C3           4.9980    -0.8290    -1.7180 ca         1 61X      -0.049000
     10 F3          -4.8000    -1.9480    -1.9410 f          1 61X      -0.110333
     11 C4           5.3880     0.4770    -2.0660 ca         1 61X      -0.095000
     12 C5           4.9200     1.5760    -1.3250 ca         1 61X      -0.088000
     13 C6           4.0570     1.3740    -0.2360 ca         1 61X       0.123100
     14 C7           3.6790     0.0660     0.1290 ca         1 61X      -0.100000
     15 C8           2.3240     2.5430     0.9750 ca         1 61X       0.087100
     16 C9           2.1200     3.1440     2.2270 ca         1 61X      -0.103000
     17 C10          0.8230     3.2300     2.7620 ca         1 61X      -0.098000
     18 C11         -0.2690     2.7150     2.0410 ca         1 61X      -0.091000
     19 C12         -0.0840     2.1090     0.7750 cp         1 61X      -0.044000
     20 C13          1.2260     2.0470     0.2460 ca         1 61X      -0.103000
     21 C14         -1.2390     1.5740    -0.0030 cp         1 61X       0.016000
     22 C15         -1.5440     2.1370    -1.2570 ca         1 61X      -0.158000
     23 C16         -2.6340     1.6600    -1.9880 ca         1 61X       0.370900
     24 C17         -3.1620     0.0720    -0.3550 ca         1 61X       0.303000
     25 C18         -2.0640     0.5040     0.4480 ca         1 61X      -0.079000
     26 C19         -1.7930    -0.1430     1.6720 ca         1 61X      -0.061000
     27 C20         -2.6050    -1.1920     2.1140 ca         1 61X      -0.122000
     28 C21         -3.6930    -1.6120     1.3430 ca         1 61X      -0.039000
     29 C22         -3.9840    -0.9930     0.1060 ca         1 61X      -0.176300
     30 C23         -5.1820    -1.4830    -0.7290 c3         1 61X       0.370300
     31 H1           1.6350    -3.8720    -0.7450 h1         1 61X       0.103367
     32 H1A          1.3700    -2.0980    -0.5680 h1         1 61X       0.103367
     33 H1B          2.1760    -2.7460    -2.0440 h1         1 61X       0.103367
     34 H3           5.3650    -1.6680    -2.3080 ha         1 61X       0.140000
     35 H4           6.0510     0.6370    -2.9140 ha         1 61X       0.124000
     36 H5           5.2180     2.5850    -1.5980 ha         1 61X       0.134000
     37 H7           3.0250    -0.0860     0.9850 ha         1 61X       0.148000
     38 H9           2.9670     3.5370     2.7840 ha         1 61X       0.135000
     39 H10          0.6640     3.6940     3.7330 ha         1 61X       0.126000
     40 H11         -1.2700     2.7890     2.4610 ha         1 61X       0.127000
     41 H13          1.3820     1.6000    -0.7330 ha         1 61X       0.134000
     42 H15         -0.9470     2.9520    -1.6560 ha         1 61X       0.132000
     43 H16         -2.8870     2.0920    -2.9550 h4         1 61X       0.028100
     44 H19         -0.9470     0.1500     2.2880 ha         1 61X       0.130000
     45 H20         -2.3880    -1.6840     3.0600 ha         1 61X       0.127000
     46 H21         -4.3040    -2.4310     1.7190 ha         1 61X       0.136000
     47 O3           3.6030     2.4660     0.4700 os         1 61X      -0.251200
@<TRIPOS>BOND
     1     1     5 1   
     2     1    31 1   
     3     1    32 1   
     4     1    33 1   
     5     2    30 1   
     6     3    23 ar  
     7     3    24 ar  
     8     4     5 2   
     9     5     6 1   
    10     5     8 2   
    11     6     9 ar  
    12     6    14 ar  
    13     7    30 1   
    14     9    11 ar  
    15     9    34 1   
    16    10    30 1   
    17    11    12 ar  
    18    11    35 1   
    19    12    13 ar  
    20    12    36 1   
    21    13    14 ar  
    22    13    47 1   
    23    14    37 1   
    24    15    16 ar  
    25    15    20 ar  
    26    15    47 1   
    27    16    17 ar  
    28    16    38 1   
    29    17    18 ar  
    30    17    39 1   
    31    18    19 ar  
    32    18    40 1   
    33    19    20 ar  
    34    19    21 1   
    35    20    41 1   
    36    21    22 ar  
    37    21    25 ar  
    38    22    23 ar  
    39    22    42 1   
    40    23    43 1   
    41    24    25 ar  
    42    24    29 ar  
    43    25    26 ar  
    44    26    27 ar  
    45    26    44 1   
    46    27    28 ar  
    47    27    45 1   
    48    28    29 ar  
    49    28    46 1   
    50    29    30 1   
@<TRIPOS>SUBSTRUCTURE
     1 61X         1 TEMP              0 ****  ****    0 ROOT
