@<TRIPOS>MOLECULE
61Y
   38    41     1     0     0
SMALL
No Charge or Current Charge


@<TRIPOS>ATOM
      1 C2          -2.7790    -0.4160    -0.0730 ca         1 61Y      -0.071000
      2 C3          -3.1880    -1.7740    -0.1670 ca         1 61Y       0.358900
      3 C7          -1.0160    -2.5350    -0.1240 ca         1 61Y       0.350500
      4 C9           1.2830    -2.7140    -0.0440 cc         1 61Y      -0.115100
      5 C10          0.9350    -1.3700     0.0220 cd         1 61Y      -0.223000
      6 C11          1.9130    -0.2580     0.1310 ca         1 61Y       0.270800
      7 C13          2.3750     1.9800     0.3090 ca         1 61Y       0.381900
      8 C15          4.1750     0.5870     0.2600 ca         1 61Y       0.169300
      9 C16          3.3020    -0.5080     0.1530 ca         1 61Y      -0.284000
     10 C19          6.2700     0.1850    -1.1280 c3         1 61Y      -0.084100
     11 C20         -3.5390     2.0790     0.0380 cc         1 61Y       0.250900
     12 C21         -3.7470     0.6910    -0.0490 cc         1 61Y      -0.145000
     13 C22         -5.0960     0.5000    -0.1140 cd         1 61Y      -0.165000
     14 N23         -5.6360     1.7940    -0.0620 na         1 61Y      -0.001200
     15 N1          -4.6530     2.7830     0.0330 nd         1 61Y      -0.521800
     16 N4          -2.3270    -2.8240    -0.1930 nb         1 61Y      -0.680000
     17 C5          -1.3950    -0.1490    -0.0010 ca         1 61Y      -0.008000
     18 C6          -0.5220    -1.2510    -0.0290 ca         1 61Y      -0.091800
     19 N8           0.0560    -3.3990    -0.1330 na         1 61Y      -0.316400
     20 N12          1.4570     1.0090     0.2130 nb         1 61Y      -0.261000
     21 N14          3.7060     1.8460     0.3380 nb         1 61Y      -0.258000
     22 N17          1.9000     3.2470     0.3930 nv         1 61Y      -1.057900
     23 C18          5.6840     0.3980     0.2810 c3         1 61Y      -0.131700
     24 H1          -4.2420    -2.0400    -0.2250 h4         1 61Y       0.015100
     25 H2           2.2460    -3.2200    -0.0350 h4         1 61Y       0.218000
     26 H3           3.7000    -1.5150     0.0880 ha         1 61Y       0.125000
     27 H4           6.0600     1.0490    -1.7700 hc         1 61Y       0.039033
     28 H5           7.3580     0.0520    -1.0760 hc         1 61Y       0.039033
     29 H6           5.8370    -0.7070    -1.5970 hc         1 61Y       0.039033
     30 H7          -2.5950     2.6030     0.1060 h4         1 61Y       0.040100
     31 H8          -5.7080    -0.3920    -0.1890 h4         1 61Y       0.155000
     32 H9          -6.6280     2.0320    -0.0890 hn         1 61Y       0.372000
     33 H10         -1.0340     0.8700     0.0700 ha         1 61Y       0.143000
     34 H11         -0.0490    -4.4040    -0.1960 hn         1 61Y       0.364000
     35 H12          0.9140     3.3850     0.5990 hn         1 61Y       0.489000
     36 H13          2.5370     3.9880     0.6750 hn         1 61Y       0.489000
     37 H14          6.1740     1.2660     0.7420 hc         1 61Y       0.053700
     38 H15          5.9410    -0.4650     0.9070 hc         1 61Y       0.053700
@<TRIPOS>BOND
     1     1     2 ar  
     2     1    12 1   
     3     1    17 ar  
     4     2    16 ar  
     5     2    24 1   
     6     3    16 ar  
     7     3    18 ar  
     8     3    19 1   
     9     4     5 2   
    10     4    19 1   
    11     4    25 1   
    12     5     6 1   
    13     5    18 1   
    14     6     9 ar  
    15     6    20 ar  
    16     7    20 ar  
    17     7    21 ar  
    18     7    22 1   
    19     8     9 ar  
    20     8    21 ar  
    21     8    23 1   
    22     9    26 1   
    23    10    23 1   
    24    10    27 1   
    25    10    28 1   
    26    10    29 1   
    27    11    12 1   
    28    11    15 2   
    29    11    30 1   
    30    12    13 2   
    31    13    14 1   
    32    13    31 1   
    33    14    15 1   
    34    14    32 1   
    35    17    18 ar  
    36    17    33 1   
    37    19    34 1   
    38    22    35 1   
    39    22    36 1   
    40    23    37 1   
    41    23    38 1   
@<TRIPOS>SUBSTRUCTURE
     1 61Y         1 TEMP              0 ****  ****    0 ROOT
