@<TRIPOS>MOLECULE
61Y
   38    41     1     0     0
SMALL
abcg2


@<TRIPOS>ATOM
      1 C2          -2.7630    -0.4230    -0.0990 ca         1 61Y      -0.071000
      2 C3          -3.1710    -1.7670    -0.1930 ca         1 61Y       0.358900
      3 C7          -1.0650    -2.5030    -0.1140 ca         1 61Y       0.350500
      4 C9           1.1380    -2.7390    -0.0130 cc         1 61Y      -0.115100
      5 C10          0.9180    -1.3810     0.0330 cd         1 61Y      -0.223000
      6 C11          1.9340    -0.3480     0.1250 ca         1 61Y       0.270800
      7 C13          2.4400     1.8670     0.2370 ca         1 61Y       0.381900
      8 C15          4.1790     0.4130     0.2750 ca         1 61Y       0.169300
      9 C16          3.2980    -0.6500     0.1840 ca         1 61Y      -0.284000
     10 C19          6.3240     0.6290    -0.9960 c3         1 61Y      -0.084100
     11 C20         -3.5770     2.0040    -0.4500 cc         1 61Y       0.250900
     12 C21         -3.7560     0.6490    -0.0940 cc         1 61Y      -0.145000
     13 C22         -5.0900     0.5800     0.2610 cd         1 61Y      -0.165000
     14 N23         -5.5900     1.8140     0.1040 na         1 61Y      -0.001200
     15 N1          -4.6950     2.6930    -0.3260 nd         1 61Y      -0.521800
     16 N4          -2.3490    -2.8010    -0.1940 nb         1 61Y      -0.680000
     17 C5          -1.4030    -0.1440    -0.0180 ca         1 61Y      -0.008000
     18 C6          -0.5080    -1.2100    -0.0310 ca         1 61Y      -0.091800
     19 N8          -0.0380    -3.4030    -0.1000 na         1 61Y      -0.316400
     20 N12          1.5110     0.9110     0.1520 nb         1 61Y      -0.261000
     21 N14          3.7570     1.6750     0.3040 nb         1 61Y      -0.258000
     22 N17          2.0010     3.1460     0.2230 nv         1 61Y      -1.057900
     23 C18          5.6630     0.1990     0.3120 c3         1 61Y      -0.131700
     24 H1          -4.2270    -2.0000    -0.2800 h4         1 61Y       0.015100
     25 H2           2.0660    -3.2880     0.0100 h4         1 61Y       0.218000
     26 H3           3.6630    -1.6670     0.1650 ha         1 61Y       0.125000
     27 H4           6.1430     1.6850    -1.1950 hc         1 61Y       0.039033
     28 H5           7.4010     0.4740    -0.9530 hc         1 61Y       0.039033
     29 H6           5.9370     0.0560    -1.8400 hc         1 61Y       0.039033
     30 H7          -2.6780     2.4870    -0.8030 h4         1 61Y       0.040100
     31 H8          -5.6970    -0.2360     0.6170 h4         1 61Y       0.155000
     32 H9          -6.5390     2.1060     0.2800 hn         1 61Y       0.372000
     33 H10         -1.0440     0.8710     0.0670 ha         1 61Y       0.143000
     34 H11         -0.1380    -4.4050    -0.1440 hn         1 61Y       0.364000
     35 H12          1.0250     3.3140     0.3950 hn         1 61Y       0.489000
     36 H13          2.6380     3.8680     0.5110 hn         1 61Y       0.489000
     37 H14          6.0820     0.7770     1.1390 hc         1 61Y       0.053700
     38 H15          5.8790    -0.8520     0.5130 hc         1 61Y       0.053700
@<TRIPOS>BOND
     1     1     2 ar  
     2     1    12 1   
     3     1    17 ar  
     4     2    16 ar  
     5     2    24 1   
     6     3    16 ar  
     7     3    18 ar  
     8     3    19 1   
     9     4     5 2   
    10     4    19 1   
    11     4    25 1   
    12     5     6 1   
    13     5    18 1   
    14     6     9 ar  
    15     6    20 ar  
    16     7    20 ar  
    17     7    21 ar  
    18     7    22 1   
    19     8     9 ar  
    20     8    21 ar  
    21     8    23 1   
    22     9    26 1   
    23    10    23 1   
    24    10    27 1   
    25    10    28 1   
    26    10    29 1   
    27    11    12 1   
    28    11    15 2   
    29    11    30 1   
    30    12    13 2   
    31    13    14 1   
    32    13    31 1   
    33    14    15 1   
    34    14    32 1   
    35    17    18 ar  
    36    17    33 1   
    37    19    34 1   
    38    22    35 1   
    39    22    36 1   
    40    23    37 1   
    41    23    38 1   
@<TRIPOS>SUBSTRUCTURE
     1 61Y         1 TEMP              0 ****  ****    0 ROOT
