@<TRIPOS>MOLECULE
61Z
   40    44     1     0     0
SMALL
No Charge or Current Charge


@<TRIPOS>ATOM
      1 N1           3.3820     8.7620    -5.6050 nb         1 61Z      -0.290000
      2 N3           1.0770     9.4200    -5.3320 nb         1 61Z      -0.178000
      3 C4           6.2330     5.9650    -6.9510 ca         1 61Z      -0.061300
      4 C5           7.5450     5.4940    -6.7800 ca         1 61Z      -0.185000
      5 C6           8.2340     4.9940    -7.9020 ca         1 61Z       0.147100
      6 C7           7.6110     4.9700    -9.1660 ca         1 61Z      -0.144000
      7 C8           6.2940     5.4460    -9.3210 ca         1 61Z      -0.048000
      8 C10          4.2210     6.4930    -8.1200 c5         1 61Z       0.277100
      9 C13          1.5210     4.8150    -7.1850 ca         1 61Z      -0.043800
     10 C15          1.7170     2.9270    -8.7230 ca         1 61Z      -0.112000
     11 C17          2.9500     2.9140    -6.6270 ca         1 61Z      -0.112000
     12 C20          0.7110     8.2570    -5.8960 ca         1 61Z       0.158300
     13 C1           2.4060     9.6030    -5.2040 ca         1 61Z       0.277000
     14 C11          1.6210     7.3030    -6.3180 ca         1 61Z      -0.225800
     15 C12          0.9570     6.1210    -6.8480 cc         1 61Z       0.014600
     16 C14          1.1720     4.1810    -8.3950 ca         1 61Z      -0.098000
     17 C16          2.6080     2.2940    -7.8410 ca         1 61Z      -0.106000
     18 C18          2.4030     4.1660    -6.2990 ca         1 61Z      -0.098000
     19 C19         -0.4210     6.2510    -6.8470 cd         1 61Z      -0.191400
     20 C2           2.9940     7.6060    -6.1830 ca         1 61Z       0.451900
     21 C3           5.3060     6.5370    -5.9050 c5         1 61Z       0.262100
     22 C9           5.6240     5.9420    -8.1920 ca         1 61Z      -0.150300
     23 N2           4.0320     6.7910    -6.6610 nh         1 61Z      -0.765300
     24 S1          -0.9810     7.8140    -6.1910 ss         1 61Z      -0.069900
     25 Cl1          2.9260    11.1070    -4.4600 cl         1 61Z      -0.135000
     26 H1           8.0120     5.5170    -5.7980 ha         1 61Z       0.121000
     27 H2           8.1500     4.5810   -10.0270 ha         1 61Z       0.132000
     28 H3           5.8080     5.4280   -10.2940 ha         1 61Z       0.121000
     29 H4           4.1330     7.4010    -8.7320 h1         1 61Z       0.072700
     30 H5           3.5020     5.7570    -8.4990 h1         1 61Z       0.072700
     31 H6           1.4490     2.4480    -9.6620 ha         1 61Z       0.116000
     32 H7           3.6370     2.4240    -5.9410 ha         1 61Z       0.116000
     33 H8           0.4890     4.6680    -9.0870 ha         1 61Z       0.120500
     34 H9           3.0310     1.3250    -8.0960 ha         1 61Z       0.115000
     35 H10          2.6700     4.6390    -5.3570 ha         1 61Z       0.120500
     36 H11         -1.1490     5.5020    -7.1410 h4         1 61Z       0.224000
     37 H12          5.1560     5.8220    -5.0850 h1         1 61Z       0.081200
     38 H13          5.7330     7.4590    -5.4850 h1         1 61Z       0.081200
     39 H14          9.7750     4.6220    -6.8300 ho         1 61Z       0.467000
     40 O1           9.5080     4.5290    -7.7700 oh         1 61Z      -0.531100
@<TRIPOS>BOND
     1     1    13 ar  
     2     1    20 ar  
     3     2    12 ar  
     4     2    13 ar  
     5     3     4 ar  
     6     3    21 1   
     7     3    22 ar  
     8     4     5 ar  
     9     4    26 1   
    10     5     6 ar  
    11     5    40 1   
    12     6     7 ar  
    13     6    27 1   
    14     7    22 ar  
    15     7    28 1   
    16     8    22 1   
    17     8    23 1   
    18     8    29 1   
    19     8    30 1   
    20     9    15 1   
    21     9    16 ar  
    22     9    18 ar  
    23    10    16 ar  
    24    10    17 ar  
    25    10    31 1   
    26    11    17 ar  
    27    11    18 ar  
    28    11    32 1   
    29    12    14 ar  
    30    12    24 1   
    31    13    25 1   
    32    14    15 1   
    33    14    20 ar  
    34    15    19 2   
    35    16    33 1   
    36    17    34 1   
    37    18    35 1   
    38    19    24 1   
    39    19    36 1   
    40    20    23 1   
    41    21    23 1   
    42    21    37 1   
    43    21    38 1   
    44    39    40 1   
@<TRIPOS>SUBSTRUCTURE
     1 61Z         1 TEMP              0 ****  ****    0 ROOT
