@<TRIPOS>MOLECULE
61Z
   40    44     1     0     0
SMALL
abcg2


@<TRIPOS>ATOM
      1 N1           3.5310     8.1650    -5.0780 nb         1 61Z      -0.290000
      2 N3           1.5400     9.3830    -5.4280 nb         1 61Z      -0.178000
      3 C4           6.4290     6.1280    -6.9400 ca         1 61Z      -0.061300
      4 C5           7.8130     6.1450    -6.9860 ca         1 61Z      -0.185000
      5 C6           8.4430     5.7220    -8.1550 ca         1 61Z       0.147100
      6 C7           7.6830     5.2960    -9.2480 ca         1 61Z      -0.144000
      7 C8           6.2980     5.2810    -9.1780 ca         1 61Z      -0.048000
      8 C10          4.2170     5.7290    -7.6790 c5         1 61Z       0.277100
      9 C13          1.3460     4.8030    -7.3430 ca         1 61Z      -0.043800
     10 C15          1.4010     2.8040    -8.6930 ca         1 61Z      -0.112000
     11 C17          2.0070     2.6950    -6.3710 ca         1 61Z      -0.112000
     12 C20          1.1460     8.3740    -6.2070 ca         1 61Z       0.158300
     13 C1           2.6930     9.1480    -4.8610 ca         1 61Z       0.277000
     14 C11          1.8620     7.2000    -6.4630 ca         1 61Z      -0.225800
     15 C12          1.0590     6.2370    -7.1800 cc         1 61Z       0.014600
     16 C14          1.1600     4.1650    -8.5670 ca         1 61Z      -0.098000
     17 C16          1.8290     2.0660    -7.5980 ca         1 61Z      -0.106000
     18 C18          1.7640     4.0540    -6.2420 ca         1 61Z      -0.098000
     19 C19         -0.1430     6.7590    -7.5340 cd         1 61Z      -0.191400
     20 C2           3.2070     7.2310    -5.9810 ca         1 61Z       0.451900
     21 C3           5.5430     6.5500    -5.8140 c5         1 61Z       0.262100
     22 C9           5.6740     5.7020    -8.0150 ca         1 61Z      -0.150300
     23 N2           4.1970     6.4230    -6.3870 nh         1 61Z      -0.765300
     24 S1          -0.3940     8.3720    -6.9810 ss         1 61Z      -0.069900
     25 CL1          3.2030    10.3120    -3.6820 cl         1 61Z      -0.135000
     26 H1           8.3960     6.4830    -6.1360 ha         1 61Z       0.121000
     27 H2           8.1860     4.9750   -10.1510 ha         1 61Z       0.132000
     28 H3           5.7210     4.9420   -10.0300 ha         1 61Z       0.121000
     29 H4           3.6110     6.2630    -8.4140 h1         1 61Z       0.072700
     30 H5           3.8290     4.7130    -7.6010 h1         1 61Z       0.072700
     31 H6           1.2620     2.3220    -9.6520 ha         1 61Z       0.116000
     32 H7           2.3320     2.1240    -5.5110 ha         1 61Z       0.116000
     33 H8           0.8450     4.7410    -9.4290 ha         1 61Z       0.120500
     34 H9           2.0230     1.0060    -7.6990 ha         1 61Z       0.115000
     35 H10          1.8970     4.5340    -5.2810 ha         1 61Z       0.120500
     36 H11         -0.9450     6.2380    -8.0340 h4         1 61Z       0.224000
     37 H12          5.6500     5.9110    -4.9330 h1         1 61Z       0.081200
     38 H13          5.7370     7.5750    -5.4990 h1         1 61Z       0.081200
     39 H14         10.2090     6.0170    -7.4830 ho         1 61Z       0.467000
     40 O1           9.7840     5.7070    -8.2900 oh         1 61Z      -0.531100
@<TRIPOS>BOND
     1     1    13 ar  
     2     1    20 ar  
     3     2    12 ar  
     4     2    13 ar  
     5     3     4 ar  
     6     3    21 1   
     7     3    22 ar  
     8     4     5 ar  
     9     4    26 1   
    10     5     6 ar  
    11     5    40 1   
    12     6     7 ar  
    13     6    27 1   
    14     7    22 ar  
    15     7    28 1   
    16     8    22 1   
    17     8    23 1   
    18     8    29 1   
    19     8    30 1   
    20     9    15 1   
    21     9    16 ar  
    22     9    18 ar  
    23    10    16 ar  
    24    10    17 ar  
    25    10    31 1   
    26    11    17 ar  
    27    11    18 ar  
    28    11    32 1   
    29    12    14 ar  
    30    12    24 1   
    31    13    25 1   
    32    14    15 1   
    33    14    20 ar  
    34    15    19 2   
    35    16    33 1   
    36    17    34 1   
    37    18    35 1   
    38    19    24 1   
    39    19    36 1   
    40    20    23 1   
    41    21    23 1   
    42    21    37 1   
    43    21    38 1   
    44    39    40 1   
@<TRIPOS>SUBSTRUCTURE
     1 61Z         1 TEMP              0 ****  ****    0 ROOT
