@<TRIPOS>MOLECULE
620
   38    40     1     0     0
SMALL
No Charge or Current Charge


@<TRIPOS>ATOM
      1 CAR         -5.0700     0.1810    -1.3170 ca         1 620      -0.084000
      2 CAU         -5.9230     1.1960    -1.7840 ca         1 620      -0.114500
      3 CAV         -6.1850     2.3200    -0.9810 ca         1 620      -0.097000
      4 CAT         -5.5920     2.4270     0.2880 ca         1 620      -0.114500
      5 CAS         -4.7390     1.4120     0.7560 ca         1 620      -0.084000
      6 CAN         -4.4740     0.2820    -0.0440 ca         1 620      -0.099300
      7 CAM         -3.5510    -0.8180     0.4620 c3         1 620       0.211900
      8 OAH         -2.2050    -0.5030     0.0640 os         1 620      -0.341100
      9 CAJ         -1.1360    -1.3170     0.3790 ca         1 620       0.144100
     10 CAK          0.1400    -0.9200    -0.0540 ca         1 620      -0.134000
     11 CAP         -1.2820    -2.5160     1.1100 ca         1 620      -0.191000
     12 CAO         -0.1540    -3.3020     1.4000 ca         1 620      -0.076000
     13 CAQ          1.1190    -2.8970     0.9640 ca         1 620      -0.125000
     14 CAL          1.2740    -1.7040     0.2330 ca         1 620      -0.068300
     15 CAI          2.6520    -1.2610    -0.2400 c3         1 620       0.192100
     16 NAF          3.2390    -0.3130     0.7210 nu         1 620      -0.695700
     17 NAA          3.5450     0.9800     0.2380 na         1 620       0.040800
     18 NAC          2.6070     1.9280     0.0120 nc         1 620      -0.233800
     19 NAE          3.2820     2.9780    -0.4010 nd         1 620      -0.015000
     20 NAD          4.6430     2.7470    -0.4440 nd         1 620      -0.454000
     21 CAB          4.7890     1.5110    -0.0540 cc         1 620       0.665400
     22 NAG          5.9670     0.8570     0.0730 nv         1 620      -1.030900
     23 H1          -4.8700    -0.6850    -1.9460 ha         1 620       0.114500
     24 H2          -6.3800     1.1130    -2.7670 ha         1 620       0.115000
     25 H3          -6.8450     3.1050    -1.3420 ha         1 620       0.114000
     26 H4          -5.7930     3.2970     0.9100 ha         1 620       0.115000
     27 H5          -4.2820     1.5040     1.7390 ha         1 620       0.114500
     28 H6          -3.6250    -0.8840     1.5550 h1         1 620       0.041200
     29 H7          -3.8630    -1.7820     0.0380 h1         1 620       0.041200
     30 H8           0.2480     0.0060    -0.6130 ha         1 620       0.130000
     31 H9          -2.2540    -2.8520     1.4590 ha         1 620       0.119000
     32 H10         -0.2650    -4.2260     1.9650 ha         1 620       0.114000
     33 H11          1.9860    -3.5120     1.1970 ha         1 620       0.120000
     34 H12          3.3040    -2.1390    -0.3420 h1         1 620       0.066200
     35 H13          2.5630    -0.8050    -1.2360 h1         1 620       0.066200
     36 H14          2.9050    -0.3340     1.6870 hn         1 620       0.449000
     37 H15          5.9290     0.0120     0.6330 hn         1 620       0.489500
     38 H16          6.7930     1.4350     0.1810 hn         1 620       0.489500
@<TRIPOS>BOND
     1     1     2 ar  
     2     1     6 ar  
     3     1    23 1   
     4     2     3 ar  
     5     2    24 1   
     6     3     4 ar  
     7     3    25 1   
     8     4     5 ar  
     9     4    26 1   
    10     5     6 ar  
    11     5    27 1   
    12     6     7 1   
    13     7     8 1   
    14     7    28 1   
    15     7    29 1   
    16     8     9 1   
    17     9    10 ar  
    18     9    11 ar  
    19    10    14 ar  
    20    10    30 1   
    21    11    12 ar  
    22    11    31 1   
    23    12    13 ar  
    24    12    32 1   
    25    13    14 ar  
    26    13    33 1   
    27    14    15 1   
    28    15    16 1   
    29    15    34 1   
    30    15    35 1   
    31    16    17 1   
    32    16    36 1   
    33    17    18 1   
    34    17    21 1   
    35    18    19 2   
    36    19    20 1   
    37    20    21 2   
    38    21    22 1   
    39    22    37 1   
    40    22    38 1   
@<TRIPOS>SUBSTRUCTURE
     1 620         1 TEMP              0 ****  ****    0 ROOT
