@<TRIPOS>MOLECULE
620
   38    40     1     0     0
SMALL
abcg2


@<TRIPOS>ATOM
      1 CAR         -5.2360    -0.0620    -1.1990 ca         1 620      -0.084000
      2 CAU         -6.2710     0.7560    -1.6270 ca         1 620      -0.114500
      3 CAV         -6.8250     1.6910    -0.7600 ca         1 620      -0.097000
      4 CAT         -6.3370     1.8040     0.5350 ca         1 620      -0.114500
      5 CAS         -5.2980     0.9860     0.9590 ca         1 620      -0.084000
      6 CAN         -4.7410     0.0460     0.0980 ca         1 620      -0.099300
      7 CAM         -3.6070    -0.8230     0.5490 c3         1 620       0.211900
      8 OAH         -2.4110    -0.2810     0.0050 os         1 620      -0.341100
      9 CAJ         -1.2440    -0.8960     0.2810 ca         1 620       0.144100
     10 CAK         -0.1040    -0.3350    -0.3020 ca         1 620      -0.134000
     11 CAP         -1.1170    -2.0190     1.0910 ca         1 620      -0.191000
     12 CAO          0.1470    -2.5610     1.3150 ca         1 620      -0.076000
     13 CAQ          1.2750    -2.0020     0.7450 ca         1 620      -0.125000
     14 CAL          1.1480    -0.8830    -0.0790 ca         1 620      -0.068300
     15 CAI          2.3660    -0.2560    -0.6950 c3         1 620       0.192100
     16 NAF          3.1160     0.4420     0.3520 nu         1 620      -0.695700
     17 NAA          4.3040     0.9530    -0.0850 na         1 620       0.040800
     18 NAC          4.4480     1.9410    -0.9820 nc         1 620      -0.233800
     19 NAE          5.6940     2.1060    -1.1230 nd         1 620      -0.015000
     20 NAD          6.4060     1.2620    -0.3630 nd         1 620      -0.454000
     21 CAB          5.5220     0.5350     0.2880 cc         1 620       0.665400
     22 NAG          5.7420    -0.4880     1.1320 nv         1 620      -1.030900
     23 H1          -4.8130    -0.7930    -1.8780 ha         1 620       0.114500
     24 H2          -6.6500     0.6620    -2.6370 ha         1 620       0.115000
     25 H3          -7.6360     2.3250    -1.0920 ha         1 620       0.114000
     26 H4          -6.7660     2.5280     1.2150 ha         1 620       0.115000
     27 H5          -4.9200     1.0770     1.9700 ha         1 620       0.114500
     28 H6          -3.5540    -0.8460     1.6420 h1         1 620       0.041200
     29 H7          -3.7470    -1.8520     0.2000 h1         1 620       0.041200
     30 H8          -0.2110     0.5370    -0.9370 ha         1 620       0.130000
     31 H9          -1.9750    -2.4860     1.5540 ha         1 620       0.119000
     32 H10          0.2370    -3.4350     1.9460 ha         1 620       0.114000
     33 H11          2.2520    -2.4330     0.9260 ha         1 620       0.120000
     34 H12          3.0180    -1.0270    -1.1100 h1         1 620       0.066200
     35 H13          2.0790     0.4110    -1.5140 h1         1 620       0.066200
     36 H14          2.5690     1.1850     0.7720 hn         1 620       0.449000
     37 H15          4.9830    -0.7290     1.7510 hn         1 620       0.489500
     38 H16          6.6550    -0.5220     1.5560 hn         1 620       0.489500
@<TRIPOS>BOND
     1     1     2 ar  
     2     1     6 ar  
     3     1    23 1   
     4     2     3 ar  
     5     2    24 1   
     6     3     4 ar  
     7     3    25 1   
     8     4     5 ar  
     9     4    26 1   
    10     5     6 ar  
    11     5    27 1   
    12     6     7 1   
    13     7     8 1   
    14     7    28 1   
    15     7    29 1   
    16     8     9 1   
    17     9    10 ar  
    18     9    11 ar  
    19    10    14 ar  
    20    10    30 1   
    21    11    12 ar  
    22    11    31 1   
    23    12    13 ar  
    24    12    32 1   
    25    13    14 ar  
    26    13    33 1   
    27    14    15 1   
    28    15    16 1   
    29    15    34 1   
    30    15    35 1   
    31    16    17 1   
    32    16    36 1   
    33    17    18 1   
    34    17    21 1   
    35    18    19 2   
    36    19    20 1   
    37    20    21 2   
    38    21    22 1   
    39    22    37 1   
    40    22    38 1   
@<TRIPOS>SUBSTRUCTURE
     1 620         1 TEMP              0 ****  ****    0 ROOT
