@<TRIPOS>MOLECULE
621
   48    47     1     0     0
SMALL
bcc


@<TRIPOS>ATOM
      1 CAT          6.5860    -0.7130     0.9350 c          1 621       0.670100
      2 OAV          6.5820    -0.9320     2.1390 o          1 621      -0.613100
      3 CAU          7.8640    -0.5320     0.1560 c3         1 621      -0.176100
      4 NAS          5.4540    -0.6090     0.2230 ns         1 621      -0.570900
      5 CAQ          4.1560    -0.7390     0.8160 c3         1 621       0.021000
      6 CAP          3.0900    -0.5370    -0.2480 c          1 621       0.661100
      7 OAR          3.3710    -0.3110    -1.4140 o          1 621      -0.624100
      8 NAM          1.8350    -0.6260     0.2090 ns         1 621      -0.550900
      9 CAK          0.6810    -0.4380    -0.6270 c3         1 621       0.026700
     10 CAJ         -0.4850    -0.0110     0.2570 c          1 621       0.666100
     11 OAL         -0.4720    -0.1500     1.4670 o          1 621      -0.593100
     12 CAN          0.2810    -1.7120    -1.3740 c3         1 621       0.127400
     13 OAO         -0.1460    -2.6670    -0.4380 oh         1 621      -0.592800
     14 C           -3.4750    -0.6830     0.4730 c          1 621       0.559100
     15 N           -1.5340     0.5000    -0.4100 ns         1 621      -0.554900
     16 CA          -2.8150     0.6740     0.2210 c3         1 621       0.006700
     17 CB          -3.7260     1.5370    -0.6530 c3         1 621      -0.082400
     18 CG          -3.1880     2.9410    -0.9420 c3         1 621      -0.056700
     19 CAC         -4.3500    -0.7280     1.6970 c3         1 621       0.036400
     20 CD1         -4.1810     3.6950    -1.8200 c3         1 621      -0.091100
     21 CD2         -2.8970     3.7190     0.3360 c3         1 621      -0.091100
     22 OXT         -5.0850    -1.9050     1.7330 oh         1 621      -0.565800
     23 HAU          7.7130    -0.4070    -0.9140 hc         1 621       0.060700
     24 HAUA         8.3930     0.3440     0.5300 hc         1 621       0.060700
     25 HAUB         8.5120    -1.3930     0.3120 hc         1 621       0.060700
     26 HNAS         5.4810    -0.4360    -0.7690 hn         1 621       0.340500
     27 HAQ          4.0100    -0.0030     1.6130 h1         1 621       0.071200
     28 HAQA         4.0240    -1.7250     1.2720 h1         1 621       0.071200
     29 HNAM         1.6630    -0.8010     1.1880 hn         1 621       0.351500
     30 HAK          0.8920     0.3410    -1.3660 h1         1 621       0.086700
     31 HAN         -0.5010    -1.4670    -2.1000 h1         1 621       0.040200
     32 HANA         1.1410    -2.0650    -1.9520 h1         1 621       0.040200
     33 HOAO        -0.8790    -3.1620    -0.8090 ho         1 621       0.420000
     34 HN          -1.5040     0.5220    -1.4170 hn         1 621       0.319500
     35 HA          -2.6690     1.1760     1.1820 h1         1 621       0.090700
     36 HB          -3.9190     1.0150    -1.5970 hc         1 621       0.052700
     37 HBA         -4.6990     1.6270    -0.1610 hc         1 621       0.052700
     38 HG          -2.2520     2.8500    -1.5030 hc         1 621       0.047700
     39 HAC         -4.9760     0.1790     1.7090 h1         1 621       0.041700
     40 HACA        -3.6670    -0.6140     2.5550 h1         1 621       0.041700
     41 HD1         -5.1280     3.8510    -1.2990 hc         1 621       0.036700
     42 HD1A        -3.7930     4.6760    -2.0950 hc         1 621       0.036700
     43 HD1B        -4.3960     3.1540    -2.7420 hc         1 621       0.036700
     44 HD2         -3.7790     3.7670     0.9790 hc         1 621       0.036700
     45 HD2A        -2.0850     3.2780     0.9150 hc         1 621       0.036700
     46 HD2B        -2.6030     4.7440     0.1080 hc         1 621       0.036700
     47 HXT         -5.5680    -1.9240     2.5620 ho         1 621       0.410000
     48 O           -3.2950    -1.6200    -0.2560 o          1 621      -0.490100
@<TRIPOS>BOND
     1     1     2 2   
     2     1     3 1   
     3     1     4 1   
     4     3    23 1   
     5     3    24 1   
     6     3    25 1   
     7     4     5 1   
     8     4    26 1   
     9     5     6 1   
    10     5    27 1   
    11     5    28 1   
    12     6     7 2   
    13     6     8 1   
    14     8     9 1   
    15     8    29 1   
    16     9    10 1   
    17     9    12 1   
    18     9    30 1   
    19    10    11 2   
    20    10    15 1   
    21    12    13 1   
    22    12    31 1   
    23    12    32 1   
    24    13    33 1   
    25    14    16 1   
    26    14    19 1   
    27    14    48 2   
    28    15    16 1   
    29    15    34 1   
    30    16    17 1   
    31    16    35 1   
    32    17    18 1   
    33    17    36 1   
    34    17    37 1   
    35    18    20 1   
    36    18    21 1   
    37    18    38 1   
    38    19    22 1   
    39    19    39 1   
    40    19    40 1   
    41    20    41 1   
    42    20    42 1   
    43    20    43 1   
    44    21    44 1   
    45    21    45 1   
    46    21    46 1   
    47    22    47 1   
@<TRIPOS>SUBSTRUCTURE
     1 621         1 TEMP              0 ****  ****    0 ROOT
