@<TRIPOS>MOLECULE
621
   48    47     1     0     0
SMALL
No Charge or Current Charge


@<TRIPOS>ATOM
      1 CAT          6.7480     0.0420     0.4140 c          1 621       0.603100
      2 OAV          6.8410     0.4030     1.5780 o          1 621      -0.613100
      3 CAU          7.9590    -0.1310    -0.4930 c3         1 621      -0.176100
      4 NAS          5.5380    -0.2390    -0.1720 ns         1 621      -0.503900
      5 CAQ          4.2280    -0.1430     0.5110 c3         1 621       0.021000
      6 CAP          3.0540    -0.5270    -0.4200 c          1 621       0.594100
      7 OAR          3.2080    -0.8630    -1.5880 o          1 621      -0.624100
      8 NAM          1.8070    -0.4530     0.1590 ns         1 621      -0.483900
      9 CAK          0.5330    -0.8220    -0.5110 c3         1 621       0.026700
     10 CAJ         -0.6780    -0.2300     0.2590 c          1 621       0.599100
     11 OAL         -0.5790     0.2520     1.3800 o          1 621      -0.593100
     12 CAN          0.3970    -2.3590    -0.7060 c3         1 621       0.150600
     13 OAO          0.5620    -3.0670     0.5370 oh         1 621      -0.655000
     14 C           -4.3090    -0.8090    -0.0830 c          1 621       0.559100
     15 N           -1.8860    -0.2830    -0.4100 ns         1 621      -0.487900
     16 CA          -3.1760     0.2460     0.1000 c3         1 621       0.006700
     17 CB          -3.5410     1.5990    -0.5750 c3         1 621      -0.082400
     18 CG          -2.5700     2.7810    -0.2960 c3         1 621      -0.056700
     19 CAC         -5.6170    -0.5440     0.7220 c3         1 621       0.059600
     20 CD1         -2.8940     3.9870    -1.2060 c3         1 621      -0.091100
     21 CD2         -2.5670     3.2100     1.1910 c3         1 621      -0.091100
     22 OXT         -6.3220    -1.7520     1.1050 oh         1 621      -0.628000
     23 HAU          7.9590    -1.1490    -0.8990 hc         1 621       0.060700
     24 HAUA         7.8210     0.4790    -1.3930 hc         1 621       0.060700
     25 HAUB         8.9030     0.1030     0.0130 hc         1 621       0.060700
     26 HNAS         5.5540    -0.5330    -1.1440 hn         1 621       0.340500
     27 HAQ          4.0700     0.8850     0.8620 h1         1 621       0.071200
     28 HAQA         4.2150    -0.8160     1.3780 h1         1 621       0.071200
     29 HNAM         1.7660    -0.1610     1.1310 hn         1 621       0.351500
     30 HAK          0.5220    -0.3530    -1.5030 h1         1 621       0.086700
     31 HAN         -0.5770    -2.5930    -1.1570 h1         1 621       0.040200
     32 HANA         1.1650    -2.6870    -1.4190 h1         1 621       0.040200
     33 HOAO        -0.2730    -2.9760     1.0470 ho         1 621       0.459000
     34 HN          -1.8800    -0.7110    -1.3300 hn         1 621       0.319500
     35 HA          -3.0940     0.4020     1.1830 h1         1 621       0.090700
     36 HB          -3.6000     1.4330    -1.6590 hc         1 621       0.052700
     37 HBA         -4.5470     1.9020    -0.2600 hc         1 621       0.052700
     38 HG          -1.5530     2.4570    -0.5510 hc         1 621       0.047700
     39 HAC         -6.2570     0.0970     0.1020 h1         1 621       0.041700
     40 HACA        -5.3480     0.0330     1.6170 h1         1 621       0.041700
     41 HD1         -3.9030     4.3670    -1.0070 hc         1 621       0.036700
     42 HD1A        -2.1810     4.8030    -1.0390 hc         1 621       0.036700
     43 HD1B        -2.8370     3.7030    -2.2640 hc         1 621       0.036700
     44 HD2         -3.5680     3.5280     1.5070 hc         1 621       0.036700
     45 HD2A        -2.2450     2.3930     1.8450 hc         1 621       0.036700
     46 HD2B        -1.8780     4.0490     1.3480 hc         1 621       0.036700
     47 HXT         -7.1380    -1.4820     1.5860 ho         1 621       0.449000
     48 O           -4.1710    -1.7910    -0.8100 o          1 621      -0.490100
@<TRIPOS>BOND
     1     1     2 2   
     2     1     3 1   
     3     1     4 1   
     4     3    23 1   
     5     3    24 1   
     6     3    25 1   
     7     4     5 1   
     8     4    26 1   
     9     5     6 1   
    10     5    27 1   
    11     5    28 1   
    12     6     7 2   
    13     6     8 1   
    14     8     9 1   
    15     8    29 1   
    16     9    10 1   
    17     9    12 1   
    18     9    30 1   
    19    10    11 2   
    20    10    15 1   
    21    12    13 1   
    22    12    31 1   
    23    12    32 1   
    24    13    33 1   
    25    14    16 1   
    26    14    19 1   
    27    14    48 2   
    28    15    16 1   
    29    15    34 1   
    30    16    17 1   
    31    16    35 1   
    32    17    18 1   
    33    17    36 1   
    34    17    37 1   
    35    18    20 1   
    36    18    21 1   
    37    18    38 1   
    38    19    22 1   
    39    19    39 1   
    40    19    40 1   
    41    20    41 1   
    42    20    42 1   
    43    20    43 1   
    44    21    44 1   
    45    21    45 1   
    46    21    46 1   
    47    22    47 1   
@<TRIPOS>SUBSTRUCTURE
     1 621         1 TEMP              0 ****  ****    0 ROOT
