@<TRIPOS>MOLECULE
622
   48    51     1     0     0
SMALL
abcg2


@<TRIPOS>ATOM
      1 C1          -4.6040     1.9270    -0.7360 ca         1 622      -0.161300
      2 C10         -1.0550    -1.6250    -1.3850 ca         1 622       0.622200
      3 C11          0.8860    -1.2640    -0.2700 ca         1 622       0.653900
      4 C12          0.3030    -1.7330     0.9210 ca         1 622      -0.258000
      5 C13         -1.0140    -2.1390     0.8810 ca         1 622      -0.006000
      6 C14          3.1040    -0.9140     0.7480 c3         1 622       0.296100
      7 C15          4.3610    -0.1690     0.4120 ca         1 622      -0.167300
      8 C16          4.3960     1.2390     0.3680 ca         1 622       0.595300
      9 C17          6.6020     1.2780    -0.2160 ca         1 622       0.361900
     10 C18          6.6620    -0.0930    -0.1980 ca         1 622       0.070000
     11 C19          5.5330    -0.8340     0.1170 ca         1 622      -0.071000
     12 C2          -5.4300     2.2380     0.3570 ca         1 622       0.358900
     13 C20          3.2740     3.2990     0.6470 c3         1 622       0.156900
     14 C21         -4.3230     2.9620    -1.7860 c3         1 622      -0.036800
     15 C3          -5.2500     0.1810     1.2150 ca         1 622       0.365500
     16 C4          -4.4030    -0.2720     0.1790 ca         1 622      -0.126800
     17 C5          -4.0820     0.6440    -0.8200 ca         1 622      -0.023000
     18 C6          -4.0910    -1.6400     0.4590 cc         1 622      -0.131400
     19 C7          -4.7440    -1.9430     1.6200 cd         1 622      -0.153100
     20 C8          -3.2030    -2.5400    -0.3380 c3         1 622       0.067100
     21 C9          -1.7600    -2.1040    -0.2970 ca         1 622      -0.222300
     22 F1           7.8120    -0.7210    -0.4850 f          1 622      -0.167000
     23 N1          -5.7620     1.3950     1.3250 nb         1 622      -0.684000
     24 N2          -5.4410    -0.8560     2.0760 na         1 622      -0.328400
     25 N3           0.1840    -1.2240    -1.4060 nb         1 622      -0.792000
     26 N4           2.1620    -0.8210    -0.3420 nu         1 622      -0.926100
     27 N5           5.4730     1.9260     0.0670 nb         1 622      -0.741000
     28 O1           3.2620     1.8790     0.6540 os         1 622      -0.446300
     29 H1           0.8630    -1.7820     1.8430 ha         1 622       0.125000
     30 H2          -1.4820    -2.4990     1.7890 ha         1 622       0.117000
     31 H3           3.3530    -1.9560     0.9790 h1         1 622       0.051200
     32 H4           2.6580    -0.4920     1.6520 h1         1 622       0.051200
     33 H5           7.4740     1.8740    -0.4610 h4         1 622       0.040100
     34 H6           5.5720    -1.9160     0.1320 ha         1 622       0.140000
     35 H7          -5.8400     3.2400     0.4390 h4         1 622       0.015100
     36 H8           2.2640     3.6050     0.9050 h1         1 622       0.050700
     37 H9           3.9720     3.7010     1.3830 h1         1 622       0.050700
     38 H10          3.5320     3.6970    -0.3350 h1         1 622       0.050700
     39 H11         -5.0900     2.9590    -2.5640 hc         1 622       0.041033
     40 H12         -4.2980     3.9660    -1.3620 hc         1 622       0.041033
     41 H13         -3.3660     2.7820    -2.2740 hc         1 622       0.041033
     42 H14         -3.4390     0.3700    -1.6490 ha         1 622       0.127000
     43 H15         -4.7660    -2.8730     2.1660 h4         1 622       0.212000
     44 H16         -3.2820    -3.5570     0.0540 hc         1 622       0.055700
     45 H17         -3.5510    -2.5930    -1.3710 hc         1 622       0.055700
     46 H18         -5.9990    -0.8280     2.9130 hn         1 622       0.360000
     47 H19          2.5300    -0.6820    -1.2690 hn         1 622       0.504000
     48 F2          -1.6800    -1.5380    -2.5710 f          1 622      -0.237200
@<TRIPOS>BOND
     1     1    12 ar  
     2     1    14 1   
     3     1    17 ar  
     4     2    21 ar  
     5     2    25 ar  
     6     2    48 1   
     7     3     4 ar  
     8     3    25 ar  
     9     3    26 1   
    10     4     5 ar  
    11     4    29 1   
    12     5    21 ar  
    13     5    30 1   
    14     6     7 1   
    15     6    26 1   
    16     6    31 1   
    17     6    32 1   
    18     7     8 ar  
    19     7    11 ar  
    20     8    27 ar  
    21     8    28 1   
    22     9    10 ar  
    23     9    27 ar  
    24     9    33 1   
    25    10    11 ar  
    26    10    22 1   
    27    11    34 1   
    28    12    23 ar  
    29    12    35 1   
    30    13    28 1   
    31    13    36 1   
    32    13    37 1   
    33    13    38 1   
    34    14    39 1   
    35    14    40 1   
    36    14    41 1   
    37    15    16 ar  
    38    15    23 ar  
    39    15    24 1   
    40    16    17 ar  
    41    16    18 1   
    42    17    42 1   
    43    18    19 2   
    44    18    20 1   
    45    19    24 1   
    46    19    43 1   
    47    20    21 1   
    48    20    44 1   
    49    20    45 1   
    50    24    46 1   
    51    26    47 1   
@<TRIPOS>SUBSTRUCTURE
     1 622         1 TEMP              0 ****  ****    0 ROOT
