@<TRIPOS>MOLECULE
622
   48    51     1     0     0
SMALL
No Charge or Current Charge


@<TRIPOS>ATOM
      1 C1          -5.0370     1.6240    -1.0490 ca         1 622      -0.161300
      2 C10         -1.0410    -1.5800    -1.3400 ca         1 622       0.622200
      3 C11          0.8390    -1.2120    -0.1290 ca         1 622       0.653900
      4 C12          0.2570    -1.6940     1.0480 ca         1 622      -0.258000
      5 C13         -1.0700    -2.1420     1.0060 ca         1 622      -0.006000
      6 C14          2.9780    -0.3240     0.8790 c3         1 622       0.296100
      7 C15          4.3270     0.1270     0.3400 ca         1 622      -0.167300
      8 C16          4.8340     1.4200     0.6140 ca         1 622       0.595300
      9 C17          6.7760     0.9820    -0.5860 ca         1 622       0.361900
     10 C18          6.3520    -0.3230    -0.8980 ca         1 622       0.070000
     11 C19          5.1090    -0.7630    -0.4270 ca         1 622      -0.071000
     12 C2          -5.8410     2.0220     0.0460 ca         1 622       0.358900
     13 C20          4.5330     3.6120     1.6900 c3         1 622       0.156900
     14 C21         -4.8630     2.5280    -2.2600 c3         1 622      -0.036800
     15 C3          -5.4190     0.0600     1.1800 ca         1 622       0.365500
     16 C4          -4.6250    -0.3970     0.1550 ca         1 622      -0.126800
     17 C5          -4.4060     0.3670    -0.9980 ca         1 622      -0.023000
     18 C6          -4.1220    -1.6980     0.4980 cc         1 622      -0.131400
     19 C7          -4.6450    -1.9800     1.7510 cd         1 622      -0.153100
     20 C8          -3.1930    -2.5540    -0.3230 c3         1 622       0.067100
     21 C9          -1.7450    -2.0840    -0.2250 ca         1 622      -0.222300
     22 F1           7.1310    -1.1450    -1.6400 f          1 622      -0.167000
     23 N1          -6.0350     1.2570     1.1510 nb         1 622      -0.684000
     24 N2          -5.4520    -0.8940     2.1740 na         1 622      -0.328400
     25 N3           0.2340    -1.1500    -1.3050 nb         1 622      -0.792000
     26 N4           2.1150    -0.7590    -0.2220 nu         1 622      -0.926100
     27 N5           6.0370     1.8430     0.1580 nb         1 622      -0.741000
     28 O1           4.0770     2.2810     1.3790 os         1 622      -0.446300
     29 H1           0.8180    -1.7230     1.9750 ha         1 622       0.125000
     30 H2          -1.5590    -2.5210     1.9020 ha         1 622       0.117000
     31 H3           3.1400    -1.1560     1.5780 h1         1 622       0.051200
     32 H4           2.4820     0.4800     1.4380 h1         1 622       0.051200
     33 H5           7.7390     1.3490    -0.9390 h4         1 622       0.040100
     34 H6           4.7610    -1.7700    -0.6510 ha         1 622       0.140000
     35 H7          -6.3470     2.9870     0.0390 h4         1 622       0.015100
     36 H8           3.7900     4.1360     2.3050 h1         1 622       0.050700
     37 H9           5.4760     3.5840     2.2500 h1         1 622       0.050700
     38 H10          4.6880     4.1980     0.7740 h1         1 622       0.050700
     39 H11         -5.5470     2.2370    -3.0670 hc         1 622       0.041033
     40 H12         -5.0670     3.5770    -2.0110 hc         1 622       0.041033
     41 H13         -3.8400     2.4750    -2.6520 hc         1 622       0.041033
     42 H14         -3.7810     0.0080    -1.8120 ha         1 622       0.127000
     43 H15         -4.5010    -2.8640     2.3680 h4         1 622       0.212000
     44 H16         -3.2610    -3.5930     0.0210 hc         1 622       0.055700
     45 H17         -3.5420    -2.5700    -1.3620 hc         1 622       0.055700
     46 H18         -5.9630    -0.8130     3.0450 hn         1 622       0.360000
     47 H19          2.3100    -0.3920    -1.1480 hn         1 622       0.504000
     48 F2          -1.6220    -1.4980    -2.5570 f          1 622      -0.237200
@<TRIPOS>BOND
     1     1    12 ar  
     2     1    14 1   
     3     1    17 ar  
     4     2    21 ar  
     5     2    25 ar  
     6     2    48 1   
     7     3     4 ar  
     8     3    25 ar  
     9     3    26 1   
    10     4     5 ar  
    11     4    29 1   
    12     5    21 ar  
    13     5    30 1   
    14     6     7 1   
    15     6    26 1   
    16     6    31 1   
    17     6    32 1   
    18     7     8 ar  
    19     7    11 ar  
    20     8    27 ar  
    21     8    28 1   
    22     9    10 ar  
    23     9    27 ar  
    24     9    33 1   
    25    10    11 ar  
    26    10    22 1   
    27    11    34 1   
    28    12    23 ar  
    29    12    35 1   
    30    13    28 1   
    31    13    36 1   
    32    13    37 1   
    33    13    38 1   
    34    14    39 1   
    35    14    40 1   
    36    14    41 1   
    37    15    16 ar  
    38    15    23 ar  
    39    15    24 1   
    40    16    17 ar  
    41    16    18 1   
    42    17    42 1   
    43    18    19 2   
    44    18    20 1   
    45    19    24 1   
    46    19    43 1   
    47    20    21 1   
    48    20    44 1   
    49    20    45 1   
    50    24    46 1   
    51    26    47 1   
@<TRIPOS>SUBSTRUCTURE
     1 622         1 TEMP              0 ****  ****    0 ROOT
