@<TRIPOS>MOLECULE
623
   47    49     1     0     0
SMALL
bcc


@<TRIPOS>ATOM
      1 C1          -1.1120     2.1090     0.0890 ca         1 623       0.076400
      2 F1          -2.4180     2.2050     0.2960 f          1 623      -0.069900
      3 C2          -0.3030     3.2270     0.2930 ca         1 623       0.010700
      4 C3           1.0430     3.0800     0.0320 ca         1 623       0.076400
      5 F3           1.8850     4.0920     0.1840 f          1 623      -0.069900
      6 C4           1.5710     1.8740    -0.4070 ca         1 623       0.216300
      7 N5           0.7370     0.8400    -0.5560 na         1 623      -0.164100
      8 C6          -0.5930     0.9090    -0.3250 ca         1 623       0.216300
      9 C7          -0.8970     4.5110     0.7580 c3         1 623      -0.072800
     10 O1           2.8560     1.7800    -0.6560 os         1 623      -0.196700
     11 O2          -1.2630    -0.1980    -0.5910 os         1 623      -0.196700
     12 C21         -2.2260    -0.6610     0.3000 ca         1 623       0.028600
     13 C22         -3.3530    -1.2260    -0.2570 ca         1 623      -0.074500
     14 C23         -4.3190    -1.7770     0.5800 ca         1 623      -0.111900
     15 C24         -4.1410    -1.7210     1.9600 ca         1 623      -0.085000
     16 C25         -3.0000    -1.1390     2.4940 ca         1 623      -0.107000
     17 C26         -2.0210    -0.6120     1.6680 ca         1 623      -0.130000
     18 C27         -5.5290    -2.3960    -0.0360 ce         1 623       0.652300
     19 N21         -5.9020    -1.9820    -1.1840 n2         1 623      -0.818100
     20 N22         -6.1540    -3.3330     0.7330 nv         1 623      -0.961800
     21 C11          3.3910     0.5740    -1.1110 ca         1 623       0.028600
     22 C12          3.5430     0.3950    -2.4760 ca         1 623      -0.130000
     23 C13          4.1120    -0.7900    -2.9130 ca         1 623      -0.107000
     24 C14          4.5010    -1.7640    -2.0030 ca         1 623      -0.085000
     25 C15          4.3330    -1.5660    -0.6350 ca         1 623      -0.111900
     26 C16          3.7770    -0.3720    -0.1840 ca         1 623      -0.074500
     27 C17          4.7490    -2.5840     0.3730 ce         1 623       0.652300
     28 N11          5.0130    -2.1830     1.5550 n2         1 623      -0.818100
     29 N12          4.8550    -3.8590    -0.0970 nv         1 623      -0.961800
     30 HN5          1.1040    -0.0640    -0.8580 hn         1 623       0.349700
     31 H51         -1.2950     4.3910     1.7660 hc         1 623       0.091367
     32 H52         -0.1680     5.3140     0.7720 hc         1 623       0.091367
     33 H53         -1.7220     4.8070     0.1110 hc         1 623       0.091367
     34 H22         -3.4830    -1.2520    -1.3310 ha         1 623       0.182500
     35 H24         -4.8940    -2.1140     2.6300 ha         1 623       0.163500
     36 H25         -2.8670    -1.1000     3.5670 ha         1 623       0.160000
     37 H26         -1.1200    -0.1870     2.0940 ha         1 623       0.151000
     38 H21         -6.7120    -2.4970    -1.5170 hn         1 623       0.393900
     39 H221        -5.6040    -3.8590     1.3910 hn         1 623       0.415800
     40 H222        -6.8880    -3.8720     0.3000 hn         1 623       0.415800
     41 H12          3.2340     1.1620    -3.1740 ha         1 623       0.151000
     42 H13          4.2550    -0.9550    -3.9720 ha         1 623       0.160000
     43 H14          4.9550    -2.6720    -2.3760 ha         1 623       0.163500
     44 H16          3.6550    -0.1960     0.8760 ha         1 623       0.182500
     45 HN11         5.2580    -2.9590     2.1640 hn         1 623       0.393900
     46 H121         4.2760    -4.1390    -0.8710 hn         1 623       0.415800
     47 H122         5.0030    -4.5910     0.5800 hn         1 623       0.415800
@<TRIPOS>BOND
     1     1     2 1   
     2     1     3 ar  
     3     1     8 ar  
     4     3     4 ar  
     5     3     9 1   
     6     4     5 1   
     7     4     6 ar  
     8     6     7 2   
     9     6    10 1   
    10     7     8 1   
    11     7    30 1   
    12     8    11 1   
    13     9    31 1   
    14     9    32 1   
    15     9    33 1   
    16    10    21 1   
    17    11    12 1   
    18    12    13 ar  
    19    12    17 ar  
    20    13    14 ar  
    21    13    34 1   
    22    14    15 ar  
    23    14    18 1   
    24    15    16 ar  
    25    15    35 1   
    26    16    17 ar  
    27    16    36 1   
    28    17    37 1   
    29    18    19 2   
    30    18    20 1   
    31    19    38 1   
    32    20    39 1   
    33    20    40 1   
    34    21    22 ar  
    35    21    26 ar  
    36    22    23 ar  
    37    22    41 1   
    38    23    24 ar  
    39    23    42 1   
    40    24    25 ar  
    41    24    43 1   
    42    25    26 ar  
    43    25    27 1   
    44    26    44 1   
    45    27    28 2   
    46    27    29 1   
    47    28    45 1   
    48    29    46 1   
    49    29    47 1   
@<TRIPOS>SUBSTRUCTURE
     1 623         1 TEMP              0 ****  ****    0 ROOT
