@<TRIPOS>MOLECULE
623
   47    49     1     0     0
SMALL
No Charge or Current Charge


@<TRIPOS>ATOM
      1 C1          -1.1040     2.2090     0.1330 ca         1 623       0.111500
      2 F1          -2.3570     2.2760     0.6420 f          1 623      -0.105000
      3 C2          -0.1760     3.2390     0.4010 ca         1 623       0.010700
      4 C3           1.1240     3.1230    -0.1410 ca         1 623       0.111500
      5 F3           2.0570     4.0710     0.1120 f          1 623      -0.105000
      6 C4           1.4610     2.0110    -0.9380 ca         1 623       0.216300
      7 N5           0.5310     1.0230    -1.2630 na         1 623      -0.163700
      8 C6          -0.7250     1.1120    -0.6740 ca         1 623       0.165600
      9 C7          -0.5620     4.4350     1.2720 c3         1 623      -0.072800
     10 O1           2.7140     1.8810    -1.4980 os         1 623      -0.196700
     11 O2          -1.5760     0.0750    -0.9860 os         1 623      -0.196700
     12 C21         -2.2740    -0.6300    -0.0310 ca         1 623       0.028600
     13 C22         -3.5290    -1.1640    -0.3690 ca         1 623      -0.056500
     14 C23         -4.2770    -1.9130     0.5700 ca         1 623      -0.111900
     15 C24         -3.7440    -2.0860     1.8710 ca         1 623      -0.067000
     16 C25         -2.4830    -1.5610     2.2050 ca         1 623      -0.089000
     17 C26         -1.7420    -0.8410     1.2550 ca         1 623      -0.112000
     18 C27         -5.6340    -2.4390     0.2040 ce         1 623       0.652300
     19 N21         -6.3030    -2.0030    -0.7820 n2         1 623      -0.818100
     20 N22         -6.1200    -3.4950     0.8930 nv         1 623      -1.072200
     21 C11          3.3850     0.6790    -1.5600 ca         1 623       0.028600
     22 C12          4.1140     0.3710    -2.7170 ca         1 623      -0.112000
     23 C13          4.8220    -0.8380    -2.7960 ca         1 623      -0.089000
     24 C14          4.8010    -1.7420    -1.7190 ca         1 623      -0.067000
     25 C15          4.0600    -1.4520    -0.5460 ca         1 623      -0.111900
     26 C16          3.3720    -0.2180    -0.4720 ca         1 623      -0.056500
     27 C17          4.0640    -2.3840     0.6300 ce         1 623       0.652300
     28 N11          3.7430    -2.0200     1.8020 n2         1 623      -0.818100
     29 N12          4.3170    -3.6940     0.4120 nv         1 623      -1.072200
     30 HN5          0.7560     0.2810    -1.9130 hn         1 623       0.400000
     31 H51         -0.3860     4.2180     2.3320 hc         1 623       0.091367
     32 H52          0.0140     5.3320     1.0150 hc         1 623       0.091367
     33 H53         -1.6200     4.6960     1.1570 hc         1 623       0.091367
     34 H22         -3.9200    -0.9950    -1.3700 ha         1 623       0.164500
     35 H24         -4.3060    -2.6180     2.6350 ha         1 623       0.145500
     36 H25         -2.0820    -1.7120     3.2060 ha         1 623       0.142000
     37 H26         -0.7630    -0.4500     1.5250 ha         1 623       0.133000
     38 H21         -7.2680    -2.3400    -0.6830 hn         1 623       0.393900
     39 H221        -5.4340    -4.0020     1.4400 hn         1 623       0.471000
     40 H222        -6.7870    -4.0820     0.4030 hn         1 623       0.471000
     41 H12          4.1350     1.0700    -3.5500 ha         1 623       0.133000
     42 H13          5.3970    -1.0740    -3.6900 ha         1 623       0.142000
     43 H14          5.3790    -2.6600    -1.7980 ha         1 623       0.145500
     44 H16          2.8280     0.0430     0.4330 ha         1 623       0.164500
     45 HN11         4.0500    -2.7500     2.4550 hn         1 623       0.393900
     46 H121         4.2470    -3.9890    -0.5550 hn         1 623       0.471000
     47 H122         3.9220    -4.3440     1.0820 hn         1 623       0.471000
@<TRIPOS>BOND
     1     1     2 1   
     2     1     3 ar  
     3     1     8 ar  
     4     3     4 ar  
     5     3     9 1   
     6     4     5 1   
     7     4     6 ar  
     8     6     7 2   
     9     6    10 1   
    10     7     8 1   
    11     7    30 1   
    12     8    11 1   
    13     9    31 1   
    14     9    32 1   
    15     9    33 1   
    16    10    21 1   
    17    11    12 1   
    18    12    13 ar  
    19    12    17 ar  
    20    13    14 ar  
    21    13    34 1   
    22    14    15 ar  
    23    14    18 1   
    24    15    16 ar  
    25    15    35 1   
    26    16    17 ar  
    27    16    36 1   
    28    17    37 1   
    29    18    19 2   
    30    18    20 1   
    31    19    38 1   
    32    20    39 1   
    33    20    40 1   
    34    21    22 ar  
    35    21    26 ar  
    36    22    23 ar  
    37    22    41 1   
    38    23    24 ar  
    39    23    42 1   
    40    24    25 ar  
    41    24    43 1   
    42    25    26 ar  
    43    25    27 1   
    44    26    44 1   
    45    27    28 2   
    46    27    29 1   
    47    28    45 1   
    48    29    46 1   
    49    29    47 1   
@<TRIPOS>SUBSTRUCTURE
     1 623         1 TEMP              0 ****  ****    0 ROOT
