@<TRIPOS>MOLECULE
625
   55    58     1     0     0
SMALL
abcg2


@<TRIPOS>ATOM
      1 C1           9.9280     0.0900     0.1080 c1         1 625       0.296900
      2 N1          10.9130     0.6770     0.1990 n1         1 625      -0.454000
      3 O1           5.1050     0.3930     0.0820 os         1 625      -0.347100
      4 CL1         -4.6750    -0.7540     1.8960 cl         1 625      -0.203000
      5 C2          -5.2340    -1.0530    -2.5550 ca         1 625      -0.112000
      6 N2          -2.4870     1.6350     0.2980 nb         1 625      -0.730000
      7 C3          -6.2880    -0.6810    -1.7340 ca         1 625      -0.099000
      8 N3          -1.3020    -0.8250    -0.3960 na         1 625       0.055000
      9 C4          -1.2460     3.9860    -0.4540 ca         1 625      -0.033000
     10 N4          -3.8410     2.7450     1.7830 nv         1 625      -1.058900
     11 C5          -3.9940    -1.3270    -1.9990 ca         1 625      -0.103000
     12 C6           1.5100     0.4370     0.3560 ca         1 625      -0.062500
     13 C7           2.1790    -1.8150    -0.0630 ca         1 625      -0.062500
     14 C8           2.8300     0.8410     0.3130 ca         1 625      -0.174500
     15 C9           3.5130    -1.4280    -0.0940 ca         1 625      -0.174500
     16 C10         -6.0970    -0.5930    -0.3640 ca         1 625      -0.109000
     17 C11         -0.6940    -2.4470     0.9940 cc         1 625      -0.166000
     18 C12         -2.0870    -2.5310     0.7930 cc         1 625      -0.155000
     19 C13         -0.8910     2.7810    -1.0570 ca         1 625      -0.220000
     20 C14         -2.2220     4.0040     0.5170 ca         1 625      -0.231000
     21 C15          1.1520    -0.9020     0.1620 ca         1 625      -0.050000
     22 C16         -3.7630    -1.2200    -0.6260 ca         1 625       0.012000
     23 C17          3.8470    -0.0890     0.0920 ca         1 625       0.144100
     24 C18         -4.8480    -0.8610     0.1750 ca         1 625       0.154000
     25 C19         -0.2300    -1.3790     0.2590 cd         1 625      -0.117000
     26 C20         -2.4400    -1.5200    -0.0680 cd         1 625      -0.105000
     27 C21         -1.5470     1.6360    -0.6370 ca         1 625       0.370300
     28 C22         -2.8330     2.7870     0.8690 ca         1 625       0.607900
     29 C23          8.6760    -0.6400    -0.0030 c3         1 625      -0.017300
     30 C25          7.4650     0.2910     0.0860 c3         1 625      -0.078400
     31 C26          6.1860    -0.5120    -0.0370 c3         1 625       0.165600
     32 H2          -5.3760    -1.1420    -3.6230 ha         1 625       0.116000
     33 H3          -7.2620    -0.4660    -2.1520 ha         1 625       0.116000
     34 H4          -0.7520     4.9060    -0.7390 ha         1 625       0.116000
     35 HN4         -4.0680     1.8370     2.1540 hn         1 625       0.477500
     36 HN4A        -3.9250     3.5060     2.4340 hn         1 625       0.477500
     37 H5          -3.1830    -1.6490    -2.6410 ha         1 625       0.116000
     38 H6           0.7530     1.1790     0.5710 ha         1 625       0.122000
     39 H7           1.9390    -2.8580    -0.2250 ha         1 625       0.122000
     40 H8           3.0840     1.8820     0.4720 ha         1 625       0.121000
     41 H9           4.2680    -2.1810    -0.2710 ha         1 625       0.121000
     42 H10         -6.9180    -0.3150     0.2840 ha         1 625       0.127000
     43 H11         -0.0870    -3.0790     1.6240 ha         1 625       0.131000
     44 H12         -2.7630    -3.2520     1.2230 ha         1 625       0.135000
     45 H13         -0.1180     2.7360    -1.8120 ha         1 625       0.124000
     46 H14         -2.5130     4.9260     1.0040 ha         1 625       0.122000
     47 H23          8.6870    -1.1810    -0.9520 hc         1 625       0.070700
     48 H23A         8.6530    -1.3880     0.7920 hc         1 625       0.070700
     49 H24         -0.2490     0.3370    -1.7470 h1         1 625       0.072200
     50 H24A        -1.9400     0.1580    -2.1080 h1         1 625       0.072200
     51 H25          7.4790     0.8200     1.0400 hc         1 625       0.068200
     52 H25A         7.5150     1.0370    -0.7100 hc         1 625       0.068200
     53 H26          6.1390    -1.2750     0.7490 h1         1 625       0.035700
     54 H26A         6.1540    -1.0300    -1.0030 h1         1 625       0.035700
     55 C24         -1.2370     0.3100    -1.2890 c3         1 625       0.015300
@<TRIPOS>BOND
     1     1     2 3   
     2     1    29 1   
     3     3    23 1   
     4     3    31 1   
     5     4    24 1   
     6     5     7 ar  
     7     5    11 ar  
     8     5    32 1   
     9     6    27 ar  
    10     6    28 ar  
    11     7    16 ar  
    12     7    33 1   
    13     8    25 1   
    14     8    26 1   
    15     8    55 1   
    16     9    19 ar  
    17     9    20 ar  
    18     9    34 1   
    19    10    28 1   
    20    10    35 1   
    21    10    36 1   
    22    11    22 ar  
    23    11    37 1   
    24    12    14 ar  
    25    12    21 ar  
    26    12    38 1   
    27    13    15 ar  
    28    13    21 ar  
    29    13    39 1   
    30    14    23 ar  
    31    14    40 1   
    32    15    23 ar  
    33    15    41 1   
    34    16    24 ar  
    35    16    42 1   
    36    17    18 1   
    37    17    25 2   
    38    17    43 1   
    39    18    26 2   
    40    18    44 1   
    41    19    27 ar  
    42    19    45 1   
    43    20    28 ar  
    44    20    46 1   
    45    21    25 1   
    46    22    24 ar  
    47    22    26 1   
    48    27    55 1   
    49    29    30 1   
    50    29    47 1   
    51    29    48 1   
    52    30    31 1   
    53    30    51 1   
    54    30    52 1   
    55    31    53 1   
    56    31    54 1   
    57    49    55 1   
    58    50    55 1   
@<TRIPOS>SUBSTRUCTURE
     1 625         1 TEMP              0 ****  ****    0 ROOT
