@<TRIPOS>MOLECULE
625
   55    58     1     0     0
SMALL
No Charge or Current Charge


@<TRIPOS>ATOM
      1 C1          10.1990     0.0210     0.1870 c1         1 625       0.296900
      2 N1          11.1800     0.6410     0.0820 n1         1 625      -0.454000
      3 O1           5.2930     0.2630    -0.0580 os         1 625      -0.347100
      4 Cl1         -4.6920    -1.5720     1.9430 cl         1 625      -0.203000
      5 C2          -5.5440    -0.7830    -2.4830 ca         1 625      -0.112000
      6 N2          -2.5680     1.7540     0.3400 nb         1 625      -0.730000
      7 C3          -6.5820    -0.8250    -1.5430 ca         1 625      -0.099000
      8 N3          -1.3520    -0.7150    -0.6070 na         1 625       0.055000
      9 C4          -1.4270     4.2170    -0.4350 ca         1 625      -0.033000
     10 N4          -3.7160     2.6840     1.9620 nv         1 625      -1.058900
     11 C5          -4.2170    -1.0040    -2.0780 ca         1 625      -0.103000
     12 C6           1.6260     0.4840    -0.2510 ca         1 625      -0.062500
     13 C7           2.2170    -1.7960     0.3030 ca         1 625      -0.062500
     14 C8           2.9890     0.8280    -0.2760 ca         1 625      -0.174500
     15 C9           3.5810    -1.4540     0.2760 ca         1 625      -0.174500
     16 C10         -6.2900    -1.0970    -0.1980 ca         1 625      -0.109000
     17 C11         -0.6820    -2.3690     0.7130 cc         1 625      -0.166000
     18 C12         -2.0600    -2.4900     0.5230 cc         1 625      -0.155000
     19 C13         -1.1130     3.0280    -1.1110 ca         1 625      -0.220000
     20 C14         -2.3260     4.1370     0.6390 ca         1 625      -0.231000
     21 C15          1.2130    -0.8400     0.0210 ca         1 625      -0.050000
     22 C16         -3.8990    -1.2640    -0.7260 ca         1 625       0.012000
     23 C17          3.9730    -0.1340    -0.0200 ca         1 625       0.144100
     24 C18         -4.9640    -1.3230     0.2140 ca         1 625       0.154000
     25 C19         -0.2180    -1.2550     0.0660 cd         1 625      -0.117000
     26 C20         -2.4890    -1.5240    -0.3410 cd         1 625      -0.105000
     27 C21         -1.6910     1.8120    -0.6910 ca         1 625       0.370300
     28 C22         -2.8560     2.8860     0.9620 ca         1 625       0.607900
     29 C23          8.9440    -0.7320     0.3120 c3         1 625      -0.017300
     30 C25          7.6910     0.1410     0.0630 c3         1 625      -0.078400
     31 C26          6.3750    -0.6490     0.1940 c3         1 625       0.165600
     32 H2          -5.7680    -0.5930    -3.5310 ha         1 625       0.116000
     33 H3          -7.6100    -0.6530    -1.8550 ha         1 625       0.116000
     34 H4          -0.9910     5.1690    -0.7340 ha         1 625       0.116000
     35 HN4         -3.8290     1.7110     2.2190 hn         1 625       0.477500
     36 HN4A        -3.7210     3.3560     2.7190 hn         1 625       0.477500
     37 H5          -3.4420    -1.0300    -2.8380 ha         1 625       0.116000
     38 H6           0.9080     1.2780    -0.3960 ha         1 625       0.122000
     39 H7           1.9520    -2.8270     0.5180 ha         1 625       0.122000
     40 H8           3.2830     1.8540    -0.4820 ha         1 625       0.121000
     41 H9           4.3150    -2.2270     0.4850 ha         1 625       0.121000
     42 H10         -7.0930    -1.1240     0.5340 ha         1 625       0.127000
     43 H11         -0.1040    -3.0470     1.3340 ha         1 625       0.131000
     44 H12         -2.6680    -3.2740     0.9650 ha         1 625       0.135000
     45 H13         -0.4260     3.0450    -1.9540 ha         1 625       0.124000
     46 H14         -2.6080     5.0220     1.1990 ha         1 625       0.122000
     47 H23          8.9660    -1.5640    -0.4010 hc         1 625       0.070700
     48 H23A         8.8990    -1.1680     1.3170 hc         1 625       0.070700
     49 H24         -0.4060     0.6060    -1.9450 h1         1 625       0.072200
     50 H24A        -2.1010     0.4140    -2.2360 h1         1 625       0.072200
     51 H25          7.6770     0.9740     0.7770 hc         1 625       0.068200
     52 H25A         7.7430     0.5780    -0.9430 hc         1 625       0.068200
     53 H26          6.2990    -1.0710     1.2050 h1         1 625       0.035700
     54 H26A         6.3660    -1.4720    -0.5340 h1         1 625       0.035700
     55 C24         -1.3700     0.5160    -1.4350 c3         1 625       0.015300
@<TRIPOS>BOND
     1     1     2 3   
     2     1    29 1   
     3     3    23 1   
     4     3    31 1   
     5     4    24 1   
     6     5     7 ar  
     7     5    11 ar  
     8     5    32 1   
     9     6    27 ar  
    10     6    28 ar  
    11     7    16 ar  
    12     7    33 1   
    13     8    25 1   
    14     8    26 1   
    15     8    55 1   
    16     9    19 ar  
    17     9    20 ar  
    18     9    34 1   
    19    10    28 1   
    20    10    35 1   
    21    10    36 1   
    22    11    22 ar  
    23    11    37 1   
    24    12    14 ar  
    25    12    21 ar  
    26    12    38 1   
    27    13    15 ar  
    28    13    21 ar  
    29    13    39 1   
    30    14    23 ar  
    31    14    40 1   
    32    15    23 ar  
    33    15    41 1   
    34    16    24 ar  
    35    16    42 1   
    36    17    18 1   
    37    17    25 2   
    38    17    43 1   
    39    18    26 2   
    40    18    44 1   
    41    19    27 ar  
    42    19    45 1   
    43    20    28 ar  
    44    20    46 1   
    45    21    25 1   
    46    22    24 ar  
    47    22    26 1   
    48    27    55 1   
    49    29    30 1   
    50    29    47 1   
    51    29    48 1   
    52    30    31 1   
    53    30    51 1   
    54    30    52 1   
    55    31    53 1   
    56    31    54 1   
    57    49    55 1   
    58    50    55 1   
@<TRIPOS>SUBSTRUCTURE
     1 625         1 TEMP              0 ****  ****    0 ROOT
