@<TRIPOS>MOLECULE
626
   56    60     1     0     0
SMALL
No Charge or Current Charge


@<TRIPOS>ATOM
      1 C1           7.2850    -3.3910     2.5460 c          1 626       0.569900
      2 O2           8.2580    -2.6950     2.2650 o          1 626      -0.512100
      3 N3           5.9970    -2.8180     2.7130 n          1 626       0.051200
      4 N4           2.5150    -2.3960     3.3110 na         1 626      -0.077200
      5 C5           3.2400    -0.4000     2.9070 cc         1 626       0.417900
      6 N6           2.0860    -1.0500     3.2110 nd         1 626      -0.464800
      7 N7           3.3860     0.9510     2.6990 ns         1 626      -0.475400
      8 C8           2.4340     1.9450     2.7440 c          1 626       0.626700
      9 C9           2.9270     3.3520     2.4630 ca         1 626      -0.203600
     10 O10          1.2580     1.7230     2.9950 o          1 626      -0.554100
     11 C11          2.0080     4.4230     2.4890 ca         1 626      -0.029000
     12 C12          2.4290     5.7390     2.2340 ca         1 626      -0.192500
     13 C13          4.6940     4.9590     1.9160 ca         1 626      -0.192500
     14 C14          4.2830     3.6390     2.1710 ca         1 626      -0.029000
     15 C15          3.8460    -2.4910     3.0740 cc         1 626      -0.071000
     16 C16          4.3310    -1.2980     2.8230 cc         1 626      -0.217000
     17 C17          5.6700    -1.4330     2.5890 cd         1 626      -0.094000
     18 C18          4.7700    -3.4750     3.0320 cd         1 626      -0.259000
     19 N19          4.1720     7.3540     1.6920 nh         1 626      -0.798400
     20 C20          5.3760     7.6590     0.8520 c6         1 626       0.206800
     21 C21          5.3460     9.1060     0.2600 c6         1 626       0.154300
     22 N22          5.1310    10.1560     1.3030 n3         1 626      -0.712600
     23 C23          3.8820     9.8580     2.0700 c6         1 626       0.154300
     24 C24          3.8820     8.4260     2.6990 c6         1 626       0.206800
     25 C25          5.1450    11.5260     0.7460 c3         1 626       0.151100
     26 C26          3.7730     6.0220     1.9470 ca         1 626       0.346000
     27 C27         10.9700    -6.4500     1.7020 cc         1 626      -0.233000
     28 C28         10.8570    -6.5050     3.0680 cd         1 626      -0.134000
     29 S29          9.5300    -5.7390     0.9780 ss         1 626       0.225000
     30 C30          9.6290    -5.9860     3.5580 cd         1 626      -0.112000
     31 C31          8.7940    -5.5300     2.5690 cc         1 626      -0.225300
     32 C32          7.4190    -4.9180     2.7270 c3         1 626      -0.078100
     33 H321         6.6910    -5.3890     2.0560 hc         1 626       0.083200
     34 H322         6.9740    -5.1700     3.6970 hc         1 626       0.083200
     35 H17          6.4440    -0.7130     2.3470 h4         1 626       0.171000
     36 H18          4.7140    -4.5460     3.1850 h4         1 626       0.160000
     37 H4           1.8730    -3.1560     3.5330 hn         1 626       0.380000
     38 H7           4.3160     1.2670     2.4810 hn         1 626       0.323500
     39 H11          0.9560     4.2430     2.7060 ha         1 626       0.119500
     40 H14          5.0370     2.8570     2.1380 ha         1 626       0.119500
     41 H12          1.6990     6.5420     2.2480 ha         1 626       0.116000
     42 H13          5.7420     5.1490     1.7050 ha         1 626       0.116000
     43 H201         5.4470     6.9480     0.0150 h1         1 626       0.047950
     44 H202         6.2880     7.5470     1.4560 h1         1 626       0.047950
     45 H241         4.6390     8.3940     3.4960 h1         1 626       0.047950
     46 H242         2.9060     8.2610     3.1770 h1         1 626       0.047950
     47 H211         6.2920     9.2850    -0.2710 h1         1 626       0.041700
     48 H212         4.5440     9.1550    -0.4920 h1         1 626       0.041700
     49 H231         3.0060     9.9450     1.4100 h1         1 626       0.041700
     50 H232         3.7470    10.5920     2.8770 h1         1 626       0.041700
     51 H251         4.3270    11.6660     0.0260 h1         1 626       0.033033
     52 H252         6.0940    11.7250     0.2310 h1         1 626       0.033033
     53 H253         5.0320    12.2710     1.5450 h1         1 626       0.033033
     54 H28         11.6330    -6.9080     3.7130 ha         1 626       0.136000
     55 H30          9.3770    -5.9540     4.6140 ha         1 626       0.133000
     56 H27         11.7850    -6.7700     1.0660 h4         1 626       0.152000
@<TRIPOS>BOND
     1     1     2 2   
     2     1     3 1   
     3     1    32 1   
     4     3    17 1   
     5     3    18 1   
     6     4     6 1   
     7     4    15 1   
     8     4    37 1   
     9     5     6 2   
    10     5     7 1   
    11     5    16 1   
    12     7     8 1   
    13     7    38 1   
    14     8     9 1   
    15     8    10 2   
    16     9    11 ar  
    17     9    14 ar  
    18    11    12 ar  
    19    11    39 1   
    20    12    26 ar  
    21    12    41 1   
    22    13    14 ar  
    23    13    26 ar  
    24    13    42 1   
    25    14    40 1   
    26    15    16 1   
    27    15    18 2   
    28    16    17 2   
    29    17    35 1   
    30    18    36 1   
    31    19    20 1   
    32    19    24 1   
    33    19    26 1   
    34    20    21 1   
    35    20    43 1   
    36    20    44 1   
    37    21    22 1   
    38    21    47 1   
    39    21    48 1   
    40    22    23 1   
    41    22    25 1   
    42    23    24 1   
    43    23    49 1   
    44    23    50 1   
    45    24    45 1   
    46    24    46 1   
    47    25    51 1   
    48    25    52 1   
    49    25    53 1   
    50    27    28 2   
    51    27    29 1   
    52    27    56 1   
    53    28    30 1   
    54    28    54 1   
    55    29    31 1   
    56    30    31 2   
    57    30    55 1   
    58    31    32 1   
    59    32    33 1   
    60    32    34 1   
@<TRIPOS>SUBSTRUCTURE
     1 626         1 TEMP              0 ****  ****    0 ROOT
