@<TRIPOS>MOLECULE
626
   56    60     1     0     0
SMALL
abcg2


@<TRIPOS>ATOM
      1 C1           7.2720    -3.4720     2.5580 c          1 626       0.569900
      2 O2           8.2400    -2.8170     2.2740 o          1 626      -0.512100
      3 N3           6.0210    -2.8600     2.7100 n          1 626       0.051200
      4 N4           2.5730    -2.2540     3.2900 na         1 626      -0.077200
      5 C5           3.4270    -0.3310     2.8530 cc         1 626       0.417900
      6 N6           2.3090    -0.9320     3.1400 nd         1 626      -0.464800
      7 N7           3.5810     1.0270     2.6400 ns         1 626      -0.475400
      8 C8           2.6110     1.9860     2.6830 c          1 626       0.626700
      9 C9           3.0610     3.3690     2.3920 ca         1 626      -0.203600
     10 O10          1.4520     1.7280     2.9590 o          1 626      -0.554100
     11 C11          2.2280     4.4260     2.7650 ca         1 626      -0.029000
     12 C12          2.5770     5.7390     2.5360 ca         1 626      -0.192500
     13 C13          4.6140     5.0070     1.5100 ca         1 626      -0.192500
     14 C14          4.2540     3.6940     1.7500 ca         1 626      -0.029000
     15 C15          3.8840    -2.5220     3.0680 cc         1 626      -0.071000
     16 C16          4.5050    -1.2750     2.7840 cc         1 626      -0.217000
     17 C17          5.8360    -1.5040     2.5640 cd         1 626      -0.094000
     18 C18          4.8270    -3.5100     3.0230 cd         1 626      -0.259000
     19 N19          4.1170     7.3880     1.6440 nh         1 626      -0.798400
     20 C20          5.3630     7.6910     0.9630 c6         1 626       0.206800
     21 C21          5.3310     9.0870     0.3700 c6         1 626       0.154300
     22 N22          5.0300    10.0810     1.3760 n3         1 626      -0.712600
     23 C23          3.7440     9.7910     1.9710 c6         1 626       0.154300
     24 C24          3.7450     8.4160     2.6070 c6         1 626       0.206800
     25 C25          5.0830    11.4210     0.8380 c3         1 626       0.151100
     26 C26          3.7870     6.0760     1.8970 ca         1 626       0.346000
     27 C27         10.8250    -6.3980     1.7690 cc         1 626      -0.233000
     28 C28         10.7430    -6.4540     3.1260 cd         1 626      -0.134000
     29 S29          9.3960    -5.7480     1.0820 ss         1 626       0.225000
     30 C30          9.5020    -5.9630     3.6170 cd         1 626      -0.112000
     31 C31          8.6660    -5.5430     2.6270 cc         1 626      -0.225300
     32 C32          7.3000    -4.9690     2.7720 c3         1 626      -0.078100
     33 H321         6.5980    -5.4400     2.0770 hc         1 626       0.083200
     34 H322         6.9260    -5.1880     3.7750 hc         1 626       0.083200
     35 H17          6.6530    -0.8450     2.3260 h4         1 626       0.171000
     36 H18          4.7640    -4.5720     3.1710 h4         1 626       0.160000
     37 H4           1.8110    -2.8920     3.4300 hn         1 626       0.380000
     38 H7           4.5320     1.3190     2.4900 hn         1 626       0.323500
     39 H11          1.2840     4.2180     3.2510 ha         1 626       0.119500
     40 H14          4.9390     2.9290     1.4050 ha         1 626       0.119500
     41 H12          1.8830     6.5080     2.8410 ha         1 626       0.116000
     42 H13          5.5630     5.1840     1.0250 ha         1 626       0.116000
     43 H201         5.5130     6.9920     0.1410 h1         1 626       0.047950
     44 H202         6.2200     7.5930     1.6440 h1         1 626       0.047950
     45 H241         4.4450     8.4070     3.4540 h1         1 626       0.047950
     46 H242         2.7520     8.2280     3.0060 h1         1 626       0.047950
     47 H211         6.3120     9.2960    -0.0640 h1         1 626       0.041700
     48 H212         4.6000     9.1080    -0.4570 h1         1 626       0.041700
     49 H231         2.9270     9.8520     1.2310 h1         1 626       0.041700
     50 H232         3.5310    10.5290     2.7480 h1         1 626       0.041700
     51 H251         4.3500    11.5970     0.0350 h1         1 626       0.033033
     52 H252         6.0760    11.6240     0.4350 h1         1 626       0.033033
     53 H253         4.8880    12.1470     1.6300 h1         1 626       0.033033
     54 H28         11.5350    -6.8330     3.7560 ha         1 626       0.136000
     55 H30          9.2380    -5.9230     4.6650 ha         1 626       0.133000
     56 H27         11.6440    -6.7070     1.1370 h4         1 626       0.152000
@<TRIPOS>BOND
     1     1     2 2   
     2     1     3 1   
     3     1    32 1   
     4     3    17 1   
     5     3    18 1   
     6     4     6 1   
     7     4    15 1   
     8     4    37 1   
     9     5     6 2   
    10     5     7 1   
    11     5    16 1   
    12     7     8 1   
    13     7    38 1   
    14     8     9 1   
    15     8    10 2   
    16     9    11 ar  
    17     9    14 ar  
    18    11    12 ar  
    19    11    39 1   
    20    12    26 ar  
    21    12    41 1   
    22    13    14 ar  
    23    13    26 ar  
    24    13    42 1   
    25    14    40 1   
    26    15    16 1   
    27    15    18 2   
    28    16    17 2   
    29    17    35 1   
    30    18    36 1   
    31    19    20 1   
    32    19    24 1   
    33    19    26 1   
    34    20    21 1   
    35    20    43 1   
    36    20    44 1   
    37    21    22 1   
    38    21    47 1   
    39    21    48 1   
    40    22    23 1   
    41    22    25 1   
    42    23    24 1   
    43    23    49 1   
    44    23    50 1   
    45    24    45 1   
    46    24    46 1   
    47    25    51 1   
    48    25    52 1   
    49    25    53 1   
    50    27    28 2   
    51    27    29 1   
    52    27    56 1   
    53    28    30 1   
    54    28    54 1   
    55    29    31 1   
    56    30    31 2   
    57    30    55 1   
    58    31    32 1   
    59    32    33 1   
    60    32    34 1   
@<TRIPOS>SUBSTRUCTURE
     1 626         1 TEMP              0 ****  ****    0 ROOT
