@<TRIPOS>MOLECULE
627
   65    69     1     0     0
SMALL
No Charge or Current Charge


@<TRIPOS>ATOM
      1 N1           3.4870    -0.4140    -1.0170 n          1 627      -0.424800
      2 N2           2.5230     3.1130    -1.6040 na         1 627       0.014800
      3 C3           0.7470     1.9220    -1.3590 cc         1 627       0.420900
      4 N4           1.1200     3.1910    -1.4460 nd         1 627      -0.503800
      5 N5          -0.5180     1.4670    -1.0690 ns         1 627      -0.477400
      6 C6          -1.6730     2.1860    -0.8520 c          1 627       0.628700
      7 C7          -2.9160     1.3700    -0.5490 ca         1 627      -0.209600
      8 O8          -1.7130     3.4080    -0.8970 o          1 627      -0.555100
      9 C9          -4.1420     2.0370    -0.3300 ca         1 627      -0.027000
     10 C10         -5.3130     1.3150    -0.0460 ca         1 627      -0.196000
     11 C11         -4.0780    -0.7560    -0.1920 ca         1 627      -0.196000
     12 C12         -2.9000    -0.0440    -0.4750 ca         1 627      -0.027000
     13 C13          2.9390     1.7840    -1.7180 cd         1 627      -0.160300
     14 C14          1.8390     1.0720    -1.5190 cc         1 627      -0.275300
     15 C15          2.0020    -0.3500    -1.1210 c5         1 627       0.204300
     16 C16          4.1070     0.9210    -1.3200 c5         1 627       0.188300
     17 N17         -6.4650    -0.8300     0.3080 nh         1 627      -0.789400
     18 C18         -6.9040    -1.9300    -0.6130 c6         1 627       0.169800
     19 C19         -7.8520    -2.9630     0.0860 c6         1 627       0.154800
     20 N20         -9.0190    -2.3230     0.7720 n3         1 627      -0.707600
     21 C21         -8.5140    -1.3120     1.7530 c6         1 627       0.154800
     22 C22         -7.5870    -0.2300     1.1030 c6         1 627       0.169800
     23 C23        -10.0290    -1.7800    -0.1680 c3         1 627       0.149100
     24 C24         -5.2940    -0.0890     0.0230 ca         1 627       0.344000
     25 C25          4.1740    -1.5200    -0.4820 c          1 627       0.612100
     26 O26          3.5380    -2.5020    -0.1070 o          1 627      -0.573100
     27 C27          6.2500    -0.5240     0.6520 ca         1 627      -0.134300
     28 C28          7.1500     0.5130     0.3290 ca         1 627      -0.090000
     29 C29          5.8290    -0.6800     1.9880 ca         1 627      -0.090000
     30 C31          7.6130     1.3870     1.3270 ca         1 627      -0.114000
     31 C33          6.2920     0.1950     2.9850 ca         1 627      -0.114000
     32 C20          5.7410    -1.4720    -0.4410 c3         1 627       0.142600
     33 C35          7.1830     1.2300     2.6550 ca         1 627      -0.099000
     34 O34          6.3160    -2.7870    -0.2200 os         1 627      -0.417000
     35 H15          1.6150    -1.0330    -1.8900 h1         1 627       0.062700
     36 H16          4.5980     1.3540    -0.4380 h1         1 627       0.060700
     37 H9          -4.1950     3.1230    -0.3800 ha         1 627       0.119500
     38 H12         -1.9870    -0.6140    -0.6280 ha         1 627       0.119500
     39 H10         -6.2400     1.8600     0.1060 ha         1 627       0.115500
     40 H11         -4.0380    -1.8390    -0.1260 ha         1 627       0.115500
     41 H181        -7.4250    -1.4970    -1.4790 h1         1 627       0.045450
     42 H182        -6.0370    -2.4780    -1.0070 h1         1 627       0.045450
     43 H221        -7.1840     0.4010     1.9080 h1         1 627       0.045450
     44 H222        -8.1960     0.4190     0.4560 h1         1 627       0.045450
     45 H191        -8.1940    -3.6950    -0.6600 h1         1 627       0.062200
     46 H192        -7.2560    -3.5240     0.8200 h1         1 627       0.062200
     47 H211        -9.3520    -0.8080     2.2570 h1         1 627       0.062200
     48 H212        -7.9390    -1.8190     2.5410 h1         1 627       0.062200
     49 H231       -10.4030    -2.5710    -0.8310 h1         1 627       0.033367
     50 H232       -10.8850    -1.3690     0.3830 h1         1 627       0.033367
     51 H233        -9.6100    -0.9800    -0.7930 h1         1 627       0.033367
     52 H20          6.0600    -1.0950    -1.4220 h1         1 627       0.041700
     53 H28          7.4910     0.6440    -0.6960 ha         1 627       0.121000
     54 H29          5.1430    -1.4820     2.2560 ha         1 627       0.121000
     55 H31          8.3050     2.1860     1.0710 ha         1 627       0.115500
     56 H33          5.9620     0.0700     4.0140 ha         1 627       0.115500
     57 H35          7.5420     1.9060     3.4280 ha         1 627       0.114000
     58 H361         8.0750    -3.9160    -0.2640 h1         1 627       0.033700
     59 H362         8.0320    -2.5540    -1.4050 h1         1 627       0.033700
     60 H363         8.2740    -2.2580     0.3360 h1         1 627       0.033700
     61 HN5         -0.6320     0.4690    -1.0130 hn         1 627       0.325500
     62 HN2          3.1160     3.9430    -1.6010 hn         1 627       0.381000
     63 H151         1.5130    -0.5610    -0.1600 h1         1 627       0.062700
     64 H161         4.8300     0.8610    -2.1440 h1         1 627       0.060700
     65 C36          7.7420    -2.8790    -0.3970 c3         1 627       0.140900
@<TRIPOS>BOND
     1     1    15 1   
     2     1    16 1   
     3     1    25 1   
     4     2     4 1   
     5     2    13 1   
     6     2    62 1   
     7     3     4 2   
     8     3     5 1   
     9     3    14 1   
    10     5     6 1   
    11     5    61 1   
    12     6     7 1   
    13     6     8 2   
    14     7     9 ar  
    15     7    12 ar  
    16     9    10 ar  
    17     9    37 1   
    18    10    24 ar  
    19    10    39 1   
    20    11    12 ar  
    21    11    24 ar  
    22    11    40 1   
    23    12    38 1   
    24    13    14 2   
    25    13    16 1   
    26    14    15 1   
    27    15    35 1   
    28    15    63 1   
    29    16    36 1   
    30    16    64 1   
    31    17    18 1   
    32    17    22 1   
    33    17    24 1   
    34    18    19 1   
    35    18    41 1   
    36    18    42 1   
    37    19    20 1   
    38    19    45 1   
    39    19    46 1   
    40    20    21 1   
    41    20    23 1   
    42    21    22 1   
    43    21    47 1   
    44    21    48 1   
    45    22    43 1   
    46    22    44 1   
    47    23    49 1   
    48    23    50 1   
    49    23    51 1   
    50    25    26 2   
    51    25    32 1   
    52    27    28 ar  
    53    27    29 ar  
    54    27    32 1   
    55    28    30 ar  
    56    28    53 1   
    57    29    31 ar  
    58    29    54 1   
    59    30    33 ar  
    60    30    55 1   
    61    31    33 ar  
    62    31    56 1   
    63    32    34 1   
    64    32    52 1   
    65    33    57 1   
    66    34    65 1   
    67    58    65 1   
    68    59    65 1   
    69    60    65 1   
@<TRIPOS>SUBSTRUCTURE
     1 627         1 TEMP              0 ****  ****    0 ROOT
