@<TRIPOS>MOLECULE
627
   65    69     1     0     0
SMALL
abcg2


@<TRIPOS>ATOM
      1 N1           3.6230    -0.2970    -0.7630 n          1 627      -0.424800
      2 N2           2.2520     2.9730    -1.3370 na         1 627       0.014800
      3 C3           0.5730     1.7720    -0.8540 cc         1 627       0.420900
      4 N4           0.9190     3.0070    -1.1780 nd         1 627      -0.503800
      5 N5          -0.7270     1.3590    -0.6030 ns         1 627      -0.477400
      6 C6          -1.8530     2.1270    -0.5920 c          1 627       0.628700
      7 C7          -3.1110     1.4100    -0.2680 ca         1 627      -0.209600
      8 O8          -1.8390     3.3190    -0.8470 o          1 627      -0.555100
      9 C9          -4.3210     1.9930    -0.6400 ca         1 627      -0.027000
     10 C10         -5.5320     1.3820    -0.3870 ca         1 627      -0.196000
     11 C11         -4.3780    -0.4300     0.6740 ca         1 627      -0.196000
     12 C12         -3.1740     0.1890     0.4050 ca         1 627      -0.027000
     13 C13          2.7410     1.7510    -1.1240 cd         1 627      -0.160300
     14 C14          1.7030     0.9340    -0.8060 cc         1 627      -0.275300
     15 C15          2.1720    -0.4520    -0.5410 c5         1 627       0.204300
     16 C16          4.0530     1.0610    -1.1290 c5         1 627       0.188300
     17 N17         -6.8080    -0.4640     0.5590 nh         1 627      -0.789400
     18 C18         -6.8160    -1.9050     0.7880 c6         1 627       0.169800
     19 C19         -8.1530    -2.3930     1.3350 c6         1 627       0.154800
     20 N20         -9.3070    -1.9570     0.5790 n3         1 627      -0.707600
     21 C21         -9.2810    -0.5120     0.5230 c6         1 627       0.154800
     22 C22         -8.0060     0.0750    -0.0720 c6         1 627       0.169800
     23 C23         -9.4410    -2.5960    -0.7140 c3         1 627       0.149100
     24 C24         -5.6060     0.1450     0.2860 ca         1 627       0.344000
     25 C25          4.4230    -1.3710    -0.6600 c          1 627       0.612100
     26 O26          3.9880    -2.4780    -0.3880 o          1 627      -0.573100
     27 C27          6.5260    -0.6160     0.4320 ca         1 627      -0.134300
     28 C28          7.1810     0.6090     0.4670 ca         1 627      -0.090000
     29 C29          6.4630    -1.3870     1.5910 ca         1 627      -0.090000
     30 C31          7.7560     1.0700     1.6450 ca         1 627      -0.114000
     31 C33          7.0380    -0.9300     2.7670 ca         1 627      -0.114000
     32 C20          5.9230    -1.1400    -0.8570 c3         1 627       0.142600
     33 C35          7.6850     0.3010     2.7970 ca         1 627      -0.099000
     34 O34          6.4620    -2.3720    -1.2380 os         1 627      -0.417000
     35 H15          1.7540    -1.1950    -1.2250 h1         1 627       0.062700
     36 H16          4.7460     1.4840    -0.3980 h1         1 627       0.060700
     37 H9          -4.3200     2.9410    -1.1630 ha         1 627       0.119500
     38 H12         -2.2780    -0.3040     0.7610 ha         1 627       0.119500
     39 H10         -6.4230     1.8810    -0.7350 ha         1 627       0.115500
     40 H11         -4.3460    -1.3680     1.2050 ha         1 627       0.115500
     41 H181        -6.5520    -2.4390    -0.1340 h1         1 627       0.045450
     42 H182        -6.0650    -2.1690     1.5310 h1         1 627       0.045450
     43 H221        -8.0530     1.1510     0.0910 h1         1 627       0.045450
     44 H222        -7.9770    -0.0820    -1.1590 h1         1 627       0.045450
     45 H191        -8.1280    -3.4840     1.3790 h1         1 627       0.062200
     46 H192        -8.2660    -2.0340     2.3620 h1         1 627       0.062200
     47 H211       -10.1310    -0.1460    -0.0580 h1         1 627       0.062200
     48 H212        -9.4050    -0.1330     1.5420 h1         1 627       0.062200
     49 H231        -9.5090    -3.6760    -0.5790 h1         1 627       0.033367
     50 H232       -10.3650    -2.2640    -1.1900 h1         1 627       0.033367
     51 H233        -8.6220    -2.4060    -1.4210 h1         1 627       0.033367
     52 H20          6.0900    -0.3940    -1.6480 h1         1 627       0.041700
     53 H28          7.2510     1.2080    -0.4340 ha         1 627       0.121000
     54 H29          5.9640    -2.3480     1.5790 ha         1 627       0.121000
     55 H31          8.2650     2.0250     1.6580 ha         1 627       0.115500
     56 H33          6.9810    -1.5340     3.6630 ha         1 627       0.115500
     57 H35          8.1340     0.6550     3.7160 ha         1 627       0.114000
     58 H361         8.1180    -3.2810    -1.9580 h1         1 627       0.033700
     59 H362         7.9680    -1.5800    -2.4380 h1         1 627       0.033700
     60 H363         8.4670    -1.9960    -0.7900 h1         1 627       0.033700
     61 HN5         -0.8350     0.3650    -0.4900 hn         1 627       0.325500
     62 HN2          2.7430     3.8150    -1.5890 hn         1 627       0.381000
     63 H151         1.9720    -0.7940     0.4780 h1         1 627       0.062700
     64 H161         4.5370     1.0840    -2.1090 h1         1 627       0.060700
     65 C36          7.8160    -2.2920    -1.6190 c3         1 627       0.140900
@<TRIPOS>BOND
     1     1    15 1   
     2     1    16 1   
     3     1    25 1   
     4     2     4 1   
     5     2    13 1   
     6     2    62 1   
     7     3     4 2   
     8     3     5 1   
     9     3    14 1   
    10     5     6 1   
    11     5    61 1   
    12     6     7 1   
    13     6     8 2   
    14     7     9 ar  
    15     7    12 ar  
    16     9    10 ar  
    17     9    37 1   
    18    10    24 ar  
    19    10    39 1   
    20    11    12 ar  
    21    11    24 ar  
    22    11    40 1   
    23    12    38 1   
    24    13    14 2   
    25    13    16 1   
    26    14    15 1   
    27    15    35 1   
    28    15    63 1   
    29    16    36 1   
    30    16    64 1   
    31    17    18 1   
    32    17    22 1   
    33    17    24 1   
    34    18    19 1   
    35    18    41 1   
    36    18    42 1   
    37    19    20 1   
    38    19    45 1   
    39    19    46 1   
    40    20    21 1   
    41    20    23 1   
    42    21    22 1   
    43    21    47 1   
    44    21    48 1   
    45    22    43 1   
    46    22    44 1   
    47    23    49 1   
    48    23    50 1   
    49    23    51 1   
    50    25    26 2   
    51    25    32 1   
    52    27    28 ar  
    53    27    29 ar  
    54    27    32 1   
    55    28    30 ar  
    56    28    53 1   
    57    29    31 ar  
    58    29    54 1   
    59    30    33 ar  
    60    30    55 1   
    61    31    33 ar  
    62    31    56 1   
    63    32    34 1   
    64    32    52 1   
    65    33    57 1   
    66    34    65 1   
    67    58    65 1   
    68    59    65 1   
    69    60    65 1   
@<TRIPOS>SUBSTRUCTURE
     1 627         1 TEMP              0 ****  ****    0 ROOT
