@<TRIPOS>MOLECULE
628
   44    47     1     0     0
SMALL
No Charge or Current Charge


@<TRIPOS>ATOM
      1 C1          -2.9890     0.4500     0.7530 cc         1 628      -0.211600
      2 C2          -2.1090     1.5150     0.9800 cd         1 628      -0.031000
      3 N3          -0.7610     1.2050     0.8080 na         1 628       0.144100
      4 C4          -0.3000    -0.0130     0.3980 cd         1 628      -0.033000
      5 C5          -1.1710    -1.1080     0.1370 cd         1 628      -0.098000
      6 C6          -2.5150    -0.8570     0.3180 cc         1 628      -0.057000
      7 C10          0.2680     2.0970     0.9620 cd         1 628      -0.355100
      8 C11          1.3470     1.3170     0.6460 cc         1 628       0.326600
      9 N12          1.0160     0.0310     0.2930 nc         1 628      -0.328600
     10 C14          6.3040    -0.1930    -0.2290 ca         1 628      -0.376500
     11 C15          5.3070    -0.8820     0.4890 ca         1 628       0.022000
     12 C16          4.0870    -0.2470     0.7720 ca         1 628      -0.193000
     13 C17          3.8480     1.0670     0.3370 ca         1 628       0.385000
     14 C18          4.8500     1.7530    -0.3650 ca         1 628      -0.193000
     15 C19          6.0740     1.1300    -0.6560 ca         1 628       0.022000
     16 C23         -4.4500     0.7180     0.8750 c          1 628       0.618300
     17 C24         -5.3700    -0.1710     0.0960 ca         1 628      -0.152600
     18 C25         -5.3070    -0.2230    -1.3140 ca         1 628       0.147500
     19 C26         -6.1790    -1.0600    -2.0320 ca         1 628      -0.102500
     20 C27         -7.1220    -1.8480    -1.3530 ca         1 628      -0.082000
     21 C28         -7.1960    -1.7930     0.0480 ca         1 628      -0.102500
     22 C29         -6.3290    -0.9560     0.7700 ca         1 628       0.147500
     23 O33         -4.8880     1.6970     1.4680 o          1 628      -0.492100
     24 O34          8.5660    -0.2750    -1.6420 o          1 628      -0.535000
     25 N35          2.6510     1.7230     0.6230 nu         1 628      -0.813000
     26 Cl2         -4.1820     0.7860    -2.2230 cl         1 628      -0.178000
     27 Cl1         -6.4370    -0.9470     2.5300 cl         1 628      -0.178000
     28 N1           8.7030    -0.6630     0.7630 n8         1 628      -0.992100
     29 O1           7.6960    -2.4560    -0.5950 o          1 628      -0.535000
     30 H2          -2.3750     2.5240     1.2730 h4         1 628       0.166000
     31 H5          -0.8020    -2.0750    -0.1880 ha         1 628       0.150000
     32 H6          -3.2270    -1.6570     0.1360 ha         1 628       0.135000
     33 H10          0.1630     3.1310     1.2620 h4         1 628       0.240000
     34 H15          5.4720    -1.9020     0.8350 ha         1 628       0.133500
     35 H16          3.3310    -0.7770     1.3420 ha         1 628       0.135500
     36 H18          4.6780     2.7730    -0.6980 ha         1 628       0.135500
     37 H19          6.8340     1.6800    -1.2110 ha         1 628       0.133500
     38 H26         -6.1270    -1.0910    -3.1170 ha         1 628       0.139000
     39 H27         -7.7960    -2.4960    -1.9100 ha         1 628       0.128000
     40 H28         -7.9250    -2.4020     0.5780 ha         1 628       0.139000
     41 H35          2.7390     2.7370     0.6460 hn         1 628       0.500000
     42 HN11         9.5240    -0.2110     0.3680 hn         1 628       0.470500
     43 HN12         8.1650     0.1050     1.1540 hn         1 628       0.470500
     44 S1           7.8590    -1.0020    -0.5920 sy         1 628       1.147600
@<TRIPOS>BOND
     1     1     2 2   
     2     1     6 1   
     3     1    16 1   
     4     2     3 1   
     5     2    30 1   
     6     3     4 1   
     7     3     7 1   
     8     4     5 1   
     9     4     9 2   
    10     5     6 2   
    11     5    31 1   
    12     6    32 1   
    13     7     8 2   
    14     7    33 1   
    15     8     9 1   
    16     8    25 1   
    17    10    11 ar  
    18    10    15 ar  
    19    10    44 1   
    20    11    12 ar  
    21    11    34 1   
    22    12    13 ar  
    23    12    35 1   
    24    13    14 ar  
    25    13    25 1   
    26    14    15 ar  
    27    14    36 1   
    28    15    37 1   
    29    16    17 1   
    30    16    23 2   
    31    17    18 ar  
    32    17    22 ar  
    33    18    19 ar  
    34    18    26 1   
    35    19    20 ar  
    36    19    38 1   
    37    20    21 ar  
    38    20    39 1   
    39    21    22 ar  
    40    21    40 1   
    41    22    27 1   
    42    24    44 2   
    43    25    41 1   
    44    28    42 1   
    45    28    43 1   
    46    28    44 1   
    47    29    44 2   
@<TRIPOS>SUBSTRUCTURE
     1 628         1 TEMP              0 ****  ****    0 ROOT
