@<TRIPOS>MOLECULE
628
   44    47     1     0     0
SMALL
abcg2


@<TRIPOS>ATOM
      1 C1          -2.9630     0.6400     0.2240 cc         1 628      -0.211600
      2 C2          -2.0620     1.6450     0.4690 cd         1 628      -0.031000
      3 N3          -0.7440     1.3980     0.3470 na         1 628       0.144100
      4 C4          -0.2470     0.1500    -0.0150 cd         1 628      -0.033000
      5 C5          -1.1590    -0.8880    -0.2690 cd         1 628      -0.098000
      6 C6          -2.4950    -0.6450    -0.1530 cc         1 628      -0.057000
      7 C10          0.3350     2.2230     0.5330 cd         1 628      -0.355100
      8 C11          1.4300     1.4290     0.2680 cc         1 628       0.326600
      9 N12          1.0680     0.1680    -0.0640 nc         1 628      -0.328600
     10 C14          6.3940    -0.0620    -0.1360 ca         1 628      -0.376500
     11 C15          5.2260    -0.8060    -0.2400 ca         1 628       0.022000
     12 C16          3.9900    -0.2030    -0.0970 ca         1 628      -0.193000
     13 C17          3.9060     1.1730     0.1590 ca         1 628       0.385000
     14 C18          5.0970     1.9120     0.2590 ca         1 628      -0.193000
     15 C19          6.3250     1.3060     0.1140 ca         1 628       0.022000
     16 C23         -4.3950     0.9430     0.3660 c          1 628       0.618300
     17 C24         -5.3660    -0.1610     0.0450 ca         1 628      -0.152600
     18 C25         -5.8700    -0.3140    -1.2390 ca         1 628       0.147500
     19 C26         -6.8070    -1.2870    -1.5410 ca         1 628      -0.102500
     20 C27         -7.2460    -2.1300    -0.5310 ca         1 628      -0.082000
     21 C28         -6.7540    -2.0110     0.7600 ca         1 628      -0.102500
     22 C29         -5.8180    -1.0260     1.0310 ca         1 628       0.147500
     23 O33         -4.8150     2.0210     0.7200 o          1 628      -0.492100
     24 O34          8.9320     0.1380    -0.7100 o          1 628      -0.535000
     25 N35          2.7290     1.8630     0.3220 nu         1 628      -0.813000
     26 CL2         -5.2930     0.7350    -2.4870 cl         1 628      -0.178000
     27 CL1         -5.1730    -0.8750     2.6280 cl         1 628      -0.178000
     28 N1           8.4340    -1.3510     1.2100 n8         1 628      -0.992100
     29 O1           7.7730    -2.0700    -1.0680 o          1 628      -0.535000
     30 H2          -2.3480     2.6450     0.7590 h4         1 628       0.166000
     31 H5          -0.7780    -1.8590    -0.5520 ha         1 628       0.150000
     32 H6          -3.1990    -1.4420    -0.3490 ha         1 628       0.135000
     33 H10          0.2390     3.2560     0.8190 h4         1 628       0.240000
     34 H15          5.2630    -1.8690    -0.4400 ha         1 628       0.133500
     35 H16          3.0960    -0.7970    -0.1910 ha         1 628       0.135500
     36 H18          5.0520     2.9780     0.4450 ha         1 628       0.135500
     37 H19          7.2210     1.9070     0.1900 ha         1 628       0.133500
     38 H26         -7.1880    -1.3870    -2.5480 ha         1 628       0.139000
     39 H27         -7.9780    -2.8950    -0.7530 ha         1 628       0.128000
     40 H28         -7.0920    -2.6740     1.5430 ha         1 628       0.139000
     41 H35          2.8330     2.8450     0.5230 hn         1 628       0.500000
     42 HN11         8.5950    -0.5870     1.8570 hn         1 628       0.470500
     43 HN12         7.8190    -2.0450     1.6190 hn         1 628       0.470500
     44 S1           7.9580    -0.8560    -0.2880 sy         1 628       1.147600
@<TRIPOS>BOND
     1     1     2 2   
     2     1     6 1   
     3     1    16 1   
     4     2     3 1   
     5     2    30 1   
     6     3     4 1   
     7     3     7 1   
     8     4     5 1   
     9     4     9 2   
    10     5     6 2   
    11     5    31 1   
    12     6    32 1   
    13     7     8 2   
    14     7    33 1   
    15     8     9 1   
    16     8    25 1   
    17    10    11 ar  
    18    10    15 ar  
    19    10    44 1   
    20    11    12 ar  
    21    11    34 1   
    22    12    13 ar  
    23    12    35 1   
    24    13    14 ar  
    25    13    25 1   
    26    14    15 ar  
    27    14    36 1   
    28    15    37 1   
    29    16    17 1   
    30    16    23 2   
    31    17    18 ar  
    32    17    22 ar  
    33    18    19 ar  
    34    18    26 1   
    35    19    20 ar  
    36    19    38 1   
    37    20    21 ar  
    38    20    39 1   
    39    21    22 ar  
    40    21    40 1   
    41    22    27 1   
    42    24    44 2   
    43    25    41 1   
    44    28    42 1   
    45    28    43 1   
    46    28    44 1   
    47    29    44 2   
@<TRIPOS>SUBSTRUCTURE
     1 628         1 TEMP              0 ****  ****    0 ROOT
