@<TRIPOS>MOLECULE
629
   53    54     1     0     0
SMALL
abcg2


@<TRIPOS>ATOM
      1 C7          -0.1160     0.2350    -6.7100 ca         1 629      -0.176500
      2 C8           0.5170     0.5630    -5.5180 ca         1 629      -0.075000
      3 C12         -0.9480    -0.8780    -6.7700 ca         1 629       0.119100
      4 C11         -1.1340    -1.6540    -5.6270 ca         1 629      -0.176500
      5 C10         -0.4920    -1.3110    -4.4490 ca         1 629      -0.075000
      6 C9           0.3490    -0.2010    -4.3680 ca         1 629      -0.096300
      7 C14          1.0020     0.1790    -3.0720 c3         1 629      -0.077100
      8 C15          0.0640     1.0250    -2.1790 c3         1 629       0.080500
      9 C17          0.7950     1.2920    -0.8720 c          1 629       0.613100
     10 N19          0.5800     0.3840     0.0890 ns         1 629      -0.449900
     11 C20          1.4210     0.2460     1.2480 c3         1 629      -0.038300
     12 C21          2.6690    -0.6430     0.9860 c          1 629       0.723000
     13 O23          2.9240    -0.9300    -0.1940 o          1 629      -0.723500
     14 O18          1.5410     2.2550    -0.7470 o          1 629      -0.636100
     15 N16         -0.3680     2.2800    -2.7550 n8         1 629      -0.987200
     16 O22          3.3410    -0.9290     1.9980 o          1 629      -0.723500
     17 C6           0.5930    -0.1720     2.4640 c6         1 629       0.119500
     18 N5          -0.1650    -1.3870     2.1850 n3         1 629      -0.456100
     19 C4          -0.9360    -1.8470     3.3230 c6         1 629       0.089800
     20 C3          -1.9460    -0.7950     3.7600 c6         1 629       0.149300
     21 C2          -1.2500     0.5430     4.0760 c6         1 629       0.191000
     22 C1          -0.4010     0.9380     2.8600 c6         1 629       0.181300
     23 O28          0.6760    -2.4180     1.7620 oh         1 629      -0.430300
     24 O32         -2.9070    -0.5450     2.7590 oh         1 629      -0.696000
     25 O29         -2.2020     1.5640     4.2570 oh         1 629      -0.636000
     26 C30         -0.3960     0.4290     5.3430 c3         1 629       0.119600
     27 O31         -1.2640     0.1720     6.4280 oh         1 629      -0.748000
     28 O64          0.2850     2.1320     3.1490 oh         1 629      -0.725000
     29 O13         -1.5880    -1.2530    -7.8980 oh         1 629      -0.543100
     30 H7           0.0420     0.8490    -7.5900 ha         1 629       0.112000
     31 H8           1.1680     1.4290    -5.4960 ha         1 629       0.117500
     32 H11         -1.7770    -2.5240    -5.6660 ha         1 629       0.112000
     33 H10         -0.6470    -1.9280    -3.5710 ha         1 629       0.117500
     34 H141         1.9110     0.7550    -3.2650 hc         1 629       0.084700
     35 H142         1.3110    -0.7130    -2.5220 hc         1 629       0.084700
     36 H15         -0.8320     0.4290    -1.9720 h1         1 629       0.060700
     37 H19          0.0020    -0.4100    -0.1390 hn         1 629       0.315500
     38 H20          1.8300     1.2320     1.4800 h1         1 629       0.074700
     39 H161         0.4410     2.8480    -2.9750 hn         1 629       0.394500
     40 H162        -0.8340     2.1010    -3.6370 hn         1 629       0.394500
     41 H6           1.3060    -0.3280     3.2890 h1         1 629       0.067700
     42 H41         -0.2960    -2.1210     4.1770 h1         1 629       0.038200
     43 H42         -1.4660    -2.7580     3.0340 h1         1 629       0.038200
     44 H3          -2.4300    -1.1730     4.6710 h1         1 629       0.035700
     45 H1          -1.0900     1.0810     2.0190 h1         1 629       0.080700
     46 H28          1.3700    -2.5320     2.4340 ho         1 629       0.435000
     47 H32         -3.2780    -1.3890     2.4830 ho         1 629       0.495000
     48 H29         -2.5980     1.4420     5.1280 ho         1 629       0.444000
     49 H301         0.3530    -0.3620     5.2420 h1         1 629       0.050200
     50 H302         0.1450     1.3690     5.4880 h1         1 629       0.050200
     51 H31         -0.7980     0.3790     7.2430 ho         1 629       0.503000
     52 H64          0.3050     2.6760     2.3570 ho         1 629       0.523000
     53 H13         -1.3730    -0.6530    -8.6200 ho         1 629       0.456000
@<TRIPOS>BOND
     1     1     2 ar  
     2     1     3 ar  
     3     1    30 1   
     4     2     6 ar  
     5     2    31 1   
     6     3     4 ar  
     7     3    29 1   
     8     4     5 ar  
     9     4    32 1   
    10     5     6 ar  
    11     5    33 1   
    12     6     7 1   
    13     7     8 1   
    14     7    34 1   
    15     7    35 1   
    16     8     9 1   
    17     8    15 1   
    18     8    36 1   
    19     9    10 1   
    20     9    14 2   
    21    10    11 1   
    22    10    37 1   
    23    11    12 1   
    24    11    17 1   
    25    11    38 1   
    26    12    13 1   
    27    12    16 1   
    28    15    39 1   
    29    15    40 1   
    30    17    18 1   
    31    17    22 1   
    32    17    41 1   
    33    18    19 1   
    34    18    23 1   
    35    19    20 1   
    36    19    42 1   
    37    19    43 1   
    38    20    21 1   
    39    20    24 1   
    40    20    44 1   
    41    21    22 1   
    42    21    25 1   
    43    21    26 1   
    44    22    28 1   
    45    22    45 1   
    46    23    46 1   
    47    24    47 1   
    48    25    48 1   
    49    26    27 1   
    50    26    49 1   
    51    26    50 1   
    52    27    51 1   
    53    28    52 1   
    54    29    53 1   
@<TRIPOS>SUBSTRUCTURE
     1 629         1 TEMP              0 ****  ****    0 ROOT
