@<TRIPOS>MOLECULE
629
   53    54     1     0     0
SMALL
No Charge or Current Charge


@<TRIPOS>ATOM
      1 C7          -0.7560     0.5640    -6.8330 ca         1 629      -0.176500
      2 C8          -0.2780     1.0250    -5.5930 ca         1 629      -0.075000
      3 C12         -0.6570    -0.7980    -7.1600 ca         1 629       0.119100
      4 C11         -0.0810    -1.6970    -6.2520 ca         1 629      -0.176500
      5 C10          0.3970    -1.2390    -5.0120 ca         1 629      -0.075000
      6 C9           0.2990     0.1260    -4.6740 ca         1 629      -0.096300
      7 C14          0.8220     0.6230    -3.3270 c3         1 629      -0.077100
      8 C15         -0.0170     0.1370    -2.1170 c3         1 629       0.080500
      9 C17          0.6410     0.5920    -0.7610 c          1 629       0.613100
     10 N19          1.1080    -0.4330     0.0370 ns         1 629      -0.449900
     11 C20          1.6980    -0.2700     1.3950 c3         1 629      -0.038300
     12 C21          2.8800    -1.2600     1.5920 c          1 629       0.723000
     13 O23          3.9920    -0.9170     1.2150 o          1 629      -0.723500
     14 O18          0.7300     1.7700    -0.4290 o          1 629      -0.636100
     15 N16         -1.4570     0.5230    -2.3010 n8         1 629      -0.987200
     16 O22          2.6520    -2.3420     2.1170 o          1 629      -0.723500
     17 C6           0.6270    -0.3440     2.5520 c6         1 629       0.119500
     18 N5          -0.5160    -1.2810     2.2320 n3         1 629      -0.456100
     19 C4          -1.5050    -1.3780     3.3390 c6         1 629       0.089800
     20 C3          -2.1320     0.0120     3.6390 c6         1 629       0.149300
     21 C2          -1.0010     1.0280     4.0610 c6         1 629       0.191000
     22 C1           0.0870     1.0870     2.9250 c6         1 629       0.181300
     23 O28          0.0270    -2.6420     2.0560 oh         1 629      -0.430300
     24 O32         -2.8500     0.4480     2.4640 oh         1 629      -0.696000
     25 O29         -1.5590     2.3430     4.2660 oh         1 629      -0.636000
     26 C30         -0.3840     0.6340     5.4580 c3         1 629       0.119600
     27 O31         -1.3550     0.7410     6.5230 oh         1 629      -0.748000
     28 O64          1.1580     1.9850     3.3040 oh         1 629      -0.725000
     29 O13         -1.1180    -1.2500    -8.3600 oh         1 629      -0.543100
     30 H7          -1.2000     1.2690    -7.5320 ha         1 629       0.112000
     31 H8          -0.3590     2.0830    -5.3480 ha         1 629       0.117500
     32 H11         -0.0030    -2.7510    -6.5070 ha         1 629       0.112000
     33 H10          0.8450    -1.9440    -4.3150 ha         1 629       0.117500
     34 H141         0.8700     1.7190    -3.3130 hc         1 629       0.084700
     35 H142         1.8570     0.2820    -3.1940 hc         1 629       0.084700
     36 H15          0.0160    -0.9620    -2.1250 h1         1 629       0.060700
     37 H19          0.9440    -1.3750    -0.2980 hn         1 629       0.315500
     38 H20          2.1720     0.7180     1.4330 h1         1 629       0.074700
     39 H161        -1.5360     1.5460    -2.2490 hn         1 629       0.394500
     40 H162        -1.7280     0.3090    -3.2690 hn         1 629       0.394500
     41 H6           1.1520    -0.7090     3.4470 h1         1 629       0.067700
     42 H41         -1.0390    -1.7880     4.2460 h1         1 629       0.038200
     43 H42         -2.3100    -2.0750     3.0630 h1         1 629       0.038200
     44 H3          -2.8380    -0.1020     4.4740 h1         1 629       0.035700
     45 H1          -0.4080     1.4820     2.0250 h1         1 629       0.080700
     46 H28          1.0130    -2.5530     2.1900 ho         1 629       0.435000
     47 H32         -2.3890     0.0140     1.7080 ho         1 629       0.495000
     48 H29         -1.9150     2.2980     5.1840 ho         1 629       0.444000
     49 H301         0.0250    -0.3830     5.4140 h1         1 629       0.050200
     50 H302         0.4640     1.2990     5.6700 h1         1 629       0.050200
     51 H31         -0.9070     0.4690     7.3600 ho         1 629       0.503000
     52 H64          0.7120     2.8260     3.5620 ho         1 629       0.523000
     53 H13         -1.4820    -0.4880    -8.8590 ho         1 629       0.456000
@<TRIPOS>BOND
     1     1     2 ar  
     2     1     3 ar  
     3     1    30 1   
     4     2     6 ar  
     5     2    31 1   
     6     3     4 ar  
     7     3    29 1   
     8     4     5 ar  
     9     4    32 1   
    10     5     6 ar  
    11     5    33 1   
    12     6     7 1   
    13     7     8 1   
    14     7    34 1   
    15     7    35 1   
    16     8     9 1   
    17     8    15 1   
    18     8    36 1   
    19     9    10 1   
    20     9    14 2   
    21    10    11 1   
    22    10    37 1   
    23    11    12 1   
    24    11    17 1   
    25    11    38 1   
    26    12    13 1   
    27    12    16 1   
    28    15    39 1   
    29    15    40 1   
    30    17    18 1   
    31    17    22 1   
    32    17    41 1   
    33    18    19 1   
    34    18    23 1   
    35    19    20 1   
    36    19    42 1   
    37    19    43 1   
    38    20    21 1   
    39    20    24 1   
    40    20    44 1   
    41    21    22 1   
    42    21    25 1   
    43    21    26 1   
    44    22    28 1   
    45    22    45 1   
    46    23    46 1   
    47    24    47 1   
    48    25    48 1   
    49    26    27 1   
    50    26    49 1   
    51    26    50 1   
    52    27    51 1   
    53    28    52 1   
    54    29    53 1   
@<TRIPOS>SUBSTRUCTURE
     1 629         1 TEMP              0 ****  ****    0 ROOT
