@<TRIPOS>MOLECULE
62B
   80    83     1     0     0
SMALL
abcg2


@<TRIPOS>ATOM
      1 C10          3.8890     1.1550     0.7460 c3         1 62B      -0.041700
      2 C11          3.6820     1.9310    -0.5850 c3         1 62B       0.189300
      3 C12          2.2000     2.1620    -0.9920 c3         1 62B      -0.036800
      4 C13          1.4400     0.8420    -1.2760 c3         1 62B      -0.086400
      5 C14          1.2600    -0.2080    -0.1660 c3         1 62B       0.186300
      6 C16          0.7870    -2.8800     1.4720 c3         1 62B      -0.082100
      7 C17          4.8360     1.8910     1.6990 c3         1 62B      -0.075100
      8 C18          2.1870     2.9160    -2.3270 c3         1 62B      -0.096100
      9 C19          1.4790     2.9340     0.0830 c2         1 62B      -0.205200
     10 C20          0.8960     4.1210    -0.0390 c2         1 62B      -0.310000
     11 C22         -2.3980    -0.5790     0.2390 c3         1 62B      -0.036400
     12 C23         -5.1750    -0.2850     0.4440 c6         1 62B       0.062300
     13 C24         -5.2670    -0.1970    -1.0760 c6         1 62B      -0.070400
     14 C25         -6.6150    -0.7070    -1.5770 c6         1 62B      -0.114400
     15 C26         -7.7840     0.0420    -0.9390 c6         1 62B       0.159500
     16 C27         -7.6670    -0.0250     0.5790 c6         1 62B      -0.108400
     17 C28         -6.3220     0.4980     1.0740 c6         1 62B       0.185300
     18 C1           5.8080    -0.3360     0.0090 c5         1 62B      -0.074400
     19 C2           5.9890    -1.7040    -0.6310 c5         1 62B      -0.197400
     20 C3           4.5930    -2.1950    -0.9460 c          1 62B       0.579100
     21 C4           3.5930    -1.0880    -0.6010 c5         1 62B      -0.160700
     22 C5           2.1230    -1.4950    -0.3170 c6         1 62B      -0.004000
     23 C6           2.1310    -2.3330     0.9900 c6         1 62B      -0.055700
     24 C7           2.8270    -1.5920     2.1330 c6         1 62B      -0.077400
     25 C8           4.2430    -1.1530     1.7900 c6         1 62B      -0.071400
     26 C9           4.3490    -0.3070     0.5080 c5         1 62B      -0.037000
     27 N1          -9.0990    -0.4250    -1.3520 n8         1 62B      -0.985200
     28 O1           4.3700    -3.2830    -1.4180 o          1 62B      -0.518100
     29 O2           4.3580     3.1680    -0.5060 oh         1 62B      -0.654000
     30 O3          -0.1210    -0.6250    -0.2150 os         1 62B      -0.457100
     31 O4          -0.7860     0.7260     1.4520 o          1 62B      -0.467000
     32 O5          -6.2030     0.4060     2.4750 oh         1 62B      -0.644000
     33 S1          -3.6270     0.4130     1.1170 ss         1 62B      -0.328000
     34 H10          2.9420     1.1200     1.2850 hc         1 62B       0.061700
     35 H11          4.1300     1.3510    -1.4030 h1         1 62B       0.020700
     36 H13          0.4440     1.1490    -1.5980 hc         1 62B       0.052200
     37 H13A         1.8850     0.3780    -2.1610 hc         1 62B       0.052200
     38 H14          1.4290     0.2270     0.8150 h1         1 62B       0.077700
     39 H15          1.6800    -1.7820    -2.4400 hc         1 62B       0.045367
     40 H15A         2.1110    -3.2560    -1.5950 hc         1 62B       0.045367
     41 H15B         0.5240    -2.5560    -1.3690 hc         1 62B       0.045367
     42 H16          0.2040    -3.3430     0.6770 hc         1 62B       0.034700
     43 H16A         0.9700    -3.6460     2.2270 hc         1 62B       0.034700
     44 H16B         0.1690    -2.1200     1.9500 hc         1 62B       0.034700
     45 H17          4.4240     2.8590     1.9780 hc         1 62B       0.038367
     46 H17A         4.9640     1.3280     2.6230 hc         1 62B       0.038367
     47 H17B         5.8240     2.0610     1.2750 hc         1 62B       0.038367
     48 H18          2.7850     2.3850    -3.0710 hc         1 62B       0.038033
     49 H18A         1.1730     2.9960    -2.7230 hc         1 62B       0.038033
     50 H18B         2.5760     3.9310    -2.2450 hc         1 62B       0.038033
     51 H19          1.4140     2.4530     1.0540 ha         1 62B       0.180000
     52 H20          0.3880     4.5740     0.8020 ha         1 62B       0.161000
     53 H20A         0.8880     4.6860    -0.9620 ha         1 62B       0.161000
     54 H22         -2.5310    -0.5280    -0.8420 h1         1 62B       0.083700
     55 H22A        -2.4710    -1.6330     0.5220 h1         1 62B       0.083700
     56 H23         -5.2470    -1.3340     0.7540 h1         1 62B       0.077700
     57 H24A        -4.4700    -0.7780    -1.5420 hc         1 62B       0.050200
     58 H25         -6.6610    -0.6110    -2.6650 hc         1 62B       0.041700
     59 H25A        -6.7120    -1.7760    -1.3520 hc         1 62B       0.041700
     60 H26         -7.7100     1.0950    -1.2370 h1         1 62B       0.060700
     61 H27         -8.4710     0.5610     1.0330 hc         1 62B       0.056200
     62 H27A        -7.7960    -1.0620     0.9120 hc         1 62B       0.056200
     63 H28         -6.2230     1.5470     0.7490 h1         1 62B       0.040700
     64 H1           6.5160    -0.1610     0.8190 hc         1 62B       0.053700
     65 H1A          5.9670     0.4510    -0.7320 hc         1 62B       0.053700
     66 H2           6.5920    -1.6880    -1.5410 hc         1 62B       0.073200
     67 H2A          6.4650    -2.4230     0.0400 hc         1 62B       0.073200
     68 H4           3.6160    -0.4910    -1.5260 hc         1 62B       0.069700
     69 H6           2.7430    -3.2120     0.7540 hc         1 62B       0.054700
     70 H7           2.2260    -0.7340     2.4520 hc         1 62B       0.045200
     71 H7A          2.8650    -2.2520     3.0040 hc         1 62B       0.045200
     72 H8           4.6820    -0.6200     2.6350 hc         1 62B       0.043700
     73 H8A          4.8580    -2.0540     1.6810 hc         1 62B       0.043700
     74 HN1         -9.1820    -0.3410    -2.3590 hn         1 62B       0.392500
     75 HN1A        -9.1740    -1.4180    -1.1600 hn         1 62B       0.392500
     76 HO2          4.4850     3.5000    -1.3990 ho         1 62B       0.440000
     77 HO5         -6.9040     0.9340     2.8700 ho         1 62B       0.446000
     78 C15          1.5770    -2.3180    -1.4940 c3         1 62B      -0.090100
     79 C21         -1.0200    -0.0690     0.5780 c          1 62B       0.612100
     80 H24         -5.1170     0.8420    -1.3850 hc         1 62B       0.050200
@<TRIPOS>BOND
     1     1     2 1   
     2     1     7 1   
     3     1    26 1   
     4     1    34 1   
     5     2     3 1   
     6     2    29 1   
     7     2    35 1   
     8     3     4 1   
     9     3     8 1   
    10     3     9 1   
    11     4     5 1   
    12     4    36 1   
    13     4    37 1   
    14     5    22 1   
    15     5    30 1   
    16     5    38 1   
    17     6    23 1   
    18     6    42 1   
    19     6    43 1   
    20     6    44 1   
    21     7    45 1   
    22     7    46 1   
    23     7    47 1   
    24     8    48 1   
    25     8    49 1   
    26     8    50 1   
    27     9    10 2   
    28     9    51 1   
    29    10    52 1   
    30    10    53 1   
    31    11    33 1   
    32    11    54 1   
    33    11    55 1   
    34    11    79 1   
    35    12    13 1   
    36    12    17 1   
    37    12    33 1   
    38    12    56 1   
    39    13    14 1   
    40    13    57 1   
    41    13    80 1   
    42    14    15 1   
    43    14    58 1   
    44    14    59 1   
    45    15    16 1   
    46    15    27 1   
    47    15    60 1   
    48    16    17 1   
    49    16    61 1   
    50    16    62 1   
    51    17    32 1   
    52    17    63 1   
    53    18    19 1   
    54    18    26 1   
    55    18    64 1   
    56    18    65 1   
    57    19    20 1   
    58    19    66 1   
    59    19    67 1   
    60    20    21 1   
    61    20    28 2   
    62    21    22 1   
    63    21    26 1   
    64    21    68 1   
    65    22    23 1   
    66    22    78 1   
    67    23    24 1   
    68    23    69 1   
    69    24    25 1   
    70    24    70 1   
    71    24    71 1   
    72    25    26 1   
    73    25    72 1   
    74    25    73 1   
    75    27    74 1   
    76    27    75 1   
    77    29    76 1   
    78    30    79 1   
    79    31    79 2   
    80    32    77 1   
    81    39    78 1   
    82    40    78 1   
    83    41    78 1   
@<TRIPOS>SUBSTRUCTURE
     1 62B         1 TEMP              0 ****  ****    0 ROOT
