@<TRIPOS>MOLECULE
62B
   80    83     1     0     0
SMALL
No Charge or Current Charge


@<TRIPOS>ATOM
      1 C10          4.1350     1.0750     0.7350 c3         1 62B      -0.041700
      2 C11          3.9680     1.8580    -0.6360 c3         1 62B       0.189300
      3 C12          2.4820     2.1760    -1.0770 c3         1 62B      -0.036800
      4 C13          1.5410     0.9110    -1.3190 c3         1 62B      -0.086400
      5 C14          1.2370    -0.1520    -0.1870 c3         1 62B       0.186300
      6 C16          0.6560    -2.5350     1.7580 c3         1 62B      -0.082100
      7 C17          5.0650     1.8120     1.7550 c3         1 62B      -0.075100
      8 C18          2.5120     2.9050    -2.4610 c3         1 62B      -0.096100
      9 C19          1.8380     3.1250    -0.0210 c2         1 62B      -0.205200
     10 C20          1.7880     4.4830     0.0160 c2         1 62B      -0.310000
     11 C22         -2.5510    -0.1280    -0.0460 c3         1 62B      -0.036400
     12 C23         -5.4000    -0.0680     0.1800 c6         1 62B       0.062300
     13 C24         -5.7860     0.3080    -1.2770 c6         1 62B      -0.070400
     14 C25         -7.0220    -0.4850    -1.7660 c6         1 62B      -0.114400
     15 C26         -8.2240    -0.2780    -0.8140 c6         1 62B       0.159500
     16 C27         -7.8530    -0.6800     0.6330 c6         1 62B      -0.108400
     17 C28         -6.6210     0.1140     1.1390 c6         1 62B       0.185300
     18 C1           5.9790    -0.6130    -0.0320 c5         1 62B      -0.074400
     19 C2           5.9130    -1.7510    -1.1000 c5         1 62B      -0.197400
     20 C3           4.5840    -2.4390    -0.8330 c          1 62B       0.579100
     21 C4           3.6580    -1.2360    -0.5390 c5         1 62B      -0.160700
     22 C5           2.1330    -1.5050    -0.2110 c6         1 62B      -0.004000
     23 C6           2.0850    -2.2170     1.2260 c6         1 62B      -0.055700
     24 C7           2.9070    -1.4760     2.3530 c6         1 62B      -0.077400
     25 C8           4.3740    -1.2470     1.9090 c6         1 62B      -0.071400
     26 C9           4.5060    -0.4600     0.5500 c5         1 62B      -0.037000
     27 N1          -9.3800    -1.0610    -1.2820 n8         1 62B      -0.985200
     28 O1           4.4330    -3.6070    -0.4980 o          1 62B      -0.518100
     29 O2           4.6900     3.0990    -0.5990 oh         1 62B      -0.654000
     30 O3          -0.1960    -0.4580    -0.3020 os         1 62B      -0.457100
     31 O4          -0.8730     1.4020     0.8690 o          1 62B      -0.467000
     32 O5          -6.2940    -0.3240     2.4660 oh         1 62B      -0.644000
     33 S1          -3.9060     0.8860     0.7330 ss         1 62B      -0.328000
     34 H10          3.1710     1.1360     1.2320 hc         1 62B       0.061700
     35 H11          4.4260     1.2620    -1.4330 h1         1 62B       0.020700
     36 H13          0.5790     1.3190    -1.6500 hc         1 62B       0.052200
     37 H13A         1.9000     0.3680    -2.2000 hc         1 62B       0.052200
     38 H14          1.3920     0.3180     0.7860 h1         1 62B       0.077700
     39 H15          1.6490    -1.9970    -2.3240 hc         1 62B       0.045367
     40 H15A         2.0310    -3.4180    -1.3530 hc         1 62B       0.045367
     41 H15B         0.4730    -2.6510    -1.1870 hc         1 62B       0.045367
     42 H16          0.0520    -3.0780     1.0230 hc         1 62B       0.034700
     43 H16A         0.7080    -3.1650     2.6540 hc         1 62B       0.034700
     44 H16B         0.1140    -1.6250     2.0400 hc         1 62B       0.034700
     45 H17          4.7330     2.8460     1.9080 hc         1 62B       0.038367
     46 H17A         5.0410     1.3520     2.7470 hc         1 62B       0.038367
     47 H17B         6.1060     1.8330     1.4130 hc         1 62B       0.038367
     48 H18          2.9470     2.2580    -3.2330 hc         1 62B       0.038033
     49 H18A         1.4990     3.1760    -2.7840 hc         1 62B       0.038033
     50 H18B         3.1010     3.8290    -2.4440 hc         1 62B       0.038033
     51 H19          1.3790     2.5910     0.8120 ha         1 62B       0.180000
     52 H20          1.2980     5.0060     0.8390 ha         1 62B       0.161000
     53 H20A         2.2160     5.1130    -0.7640 ha         1 62B       0.161000
     54 H22         -2.6820    -0.1490    -1.1340 h1         1 62B       0.083700
     55 H22A        -2.6070    -1.1590     0.3250 h1         1 62B       0.083700
     56 H23         -5.1210    -1.1310     0.1990 h1         1 62B       0.077700
     57 H24A        -4.9400     0.1160    -1.9500 hc         1 62B       0.050200
     58 H25         -7.2840    -0.1610    -2.7830 hc         1 62B       0.041700
     59 H25A        -6.7680    -1.5530    -1.8320 hc         1 62B       0.041700
     60 H26         -8.5120     0.7860    -0.8270 h1         1 62B       0.060700
     61 H27         -8.7090    -0.4970     1.2970 hc         1 62B       0.056200
     62 H27A        -7.6420    -1.7580     0.6810 hc         1 62B       0.056200
     63 H28         -6.8820     1.1830     1.1570 h1         1 62B       0.040700
     64 H1           6.6950    -0.8540     0.7630 hc         1 62B       0.053700
     65 H1A          6.3510     0.3110    -0.4910 hc         1 62B       0.053700
     66 H2           5.8650    -1.2740    -2.0860 hc         1 62B       0.073200
     67 H2A          6.7500    -2.4560    -1.0510 hc         1 62B       0.073200
     68 H4           3.6850    -0.6670    -1.4690 hc         1 62B       0.069700
     69 H6           2.5380    -3.2100     1.1160 hc         1 62B       0.054700
     70 H7           2.4290    -0.5260     2.6200 hc         1 62B       0.045200
     71 H7A          2.9040    -2.0810     3.2710 hc         1 62B       0.045200
     72 H8           4.9360    -0.7670     2.7180 hc         1 62B       0.043700
     73 H8A          4.8520    -2.2310     1.8160 hc         1 62B       0.043700
     74 HN1         -9.5760    -0.8080    -2.2570 hn         1 62B       0.392500
     75 HN1A        -9.1050    -2.0470    -1.3430 hn         1 62B       0.392500
     76 HO2          4.0590     3.7520    -0.2260 ho         1 62B       0.440000
     77 HO5         -7.0370    -0.0490     3.0460 ho         1 62B       0.446000
     78 C15          1.5390    -2.4410    -1.3270 c3         1 62B      -0.090100
     79 C21         -1.1320     0.3870     0.2380 c          1 62B       0.612100
     80 H24         -5.9920     1.3860    -1.3370 hc         1 62B       0.050200
@<TRIPOS>BOND
     1     1     2 1   
     2     1     7 1   
     3     1    26 1   
     4     1    34 1   
     5     2     3 1   
     6     2    29 1   
     7     2    35 1   
     8     3     4 1   
     9     3     8 1   
    10     3     9 1   
    11     4     5 1   
    12     4    36 1   
    13     4    37 1   
    14     5    22 1   
    15     5    30 1   
    16     5    38 1   
    17     6    23 1   
    18     6    42 1   
    19     6    43 1   
    20     6    44 1   
    21     7    45 1   
    22     7    46 1   
    23     7    47 1   
    24     8    48 1   
    25     8    49 1   
    26     8    50 1   
    27     9    10 2   
    28     9    51 1   
    29    10    52 1   
    30    10    53 1   
    31    11    33 1   
    32    11    54 1   
    33    11    55 1   
    34    11    79 1   
    35    12    13 1   
    36    12    17 1   
    37    12    33 1   
    38    12    56 1   
    39    13    14 1   
    40    13    57 1   
    41    13    80 1   
    42    14    15 1   
    43    14    58 1   
    44    14    59 1   
    45    15    16 1   
    46    15    27 1   
    47    15    60 1   
    48    16    17 1   
    49    16    61 1   
    50    16    62 1   
    51    17    32 1   
    52    17    63 1   
    53    18    19 1   
    54    18    26 1   
    55    18    64 1   
    56    18    65 1   
    57    19    20 1   
    58    19    66 1   
    59    19    67 1   
    60    20    21 1   
    61    20    28 2   
    62    21    22 1   
    63    21    26 1   
    64    21    68 1   
    65    22    23 1   
    66    22    78 1   
    67    23    24 1   
    68    23    69 1   
    69    24    25 1   
    70    24    70 1   
    71    24    71 1   
    72    25    26 1   
    73    25    72 1   
    74    25    73 1   
    75    27    74 1   
    76    27    75 1   
    77    29    76 1   
    78    30    79 1   
    79    31    79 2   
    80    32    77 1   
    81    39    78 1   
    82    40    78 1   
    83    41    78 1   
@<TRIPOS>SUBSTRUCTURE
     1 62B         1 TEMP              0 ****  ****    0 ROOT
