@<TRIPOS>MOLECULE
62C
   41    42     1     0     0
SMALL
bcc


@<TRIPOS>ATOM
      1 C4          -5.1390    -0.6790     0.8170 c6         1 62C       0.079100
      2 C5          -5.7250    -0.1830    -0.5090 c6         1 62C       0.120100
      3 C6          -7.1930     0.1630    -0.3860 c3         1 62C       0.146400
      4 C8          -0.6190     0.8100     0.6930 c          1 62C       0.678300
      5 C10          0.7600     0.4520     0.2830 ce         1 62C      -0.233200
      6 C13          4.1950     1.5830     1.1310 ca         1 62C      -0.100000
      7 C15          5.9380     0.3700     0.0180 ca         1 62C       0.033400
      8 C17          3.6360    -0.2690    -0.2860 ca         1 62C      -0.098000
      9 C16          4.9780    -0.4630    -0.5540 ca         1 62C       0.021400
     10 CL2          7.6090     0.1380    -0.3100 cl         1 62C      -0.074400
     11 C14          5.5390     1.3940     0.8620 ca         1 62C      -0.118000
     12 C12          3.2230     0.7620     0.5590 ca         1 62C      -0.058800
     13 C11          1.8180     1.0170     0.8680 cf         1 62C      -0.039200
     14 O9          -0.8580     1.5820     1.6130 o          1 62C      -0.601100
     15 N7          -1.5720     0.2190    -0.0520 ns         1 62C      -0.555900
     16 C2          -2.9860     0.3830     0.1600 c6         1 62C       0.092700
     17 C1          -3.6710     0.8630    -1.1220 c6         1 62C       0.326900
     18 O1          -3.3550    -0.0340    -2.1390 oh         1 62C      -0.623800
     19 C3          -3.6370    -0.8990     0.6710 c6         1 62C       0.136100
     20 O3          -3.0370    -1.2300     1.8960 oh         1 62C      -0.582800
     21 O4          -5.7070    -1.9090     1.2100 oh         1 62C      -0.598800
     22 O5          -5.0480     0.9940    -0.9220 os         1 62C      -0.415600
     23 O6          -7.6880     0.5160    -1.6540 oh         1 62C      -0.582800
     24 H41         -5.3000     0.0930     1.5850 h1         1 62C       0.054700
     25 H51         -5.6110    -0.9780    -1.2590 h1         1 62C       0.074700
     26 H61         -7.7200    -0.7090     0.0200 h1         1 62C       0.024200
     27 H62         -7.3100     0.9780     0.3420 h1         1 62C       0.024200
     28 H101         0.8740    -0.2750    -0.5140 ha         1 62C       0.129000
     29 H171         2.9170    -0.9370    -0.7380 ha         1 62C       0.150000
     30 H141         6.2810     2.0420     1.3090 ha         1 62C       0.153000
     31 H111         1.6440     1.7550     1.6450 ha         1 62C       0.151000
     32 H71         -1.2870    -0.4040    -0.7920 hn         1 62C       0.324500
     33 H21         -3.1200     1.1630     0.9120 h1         1 62C       0.105700
     34 H11         -3.3200     1.8730    -1.3600 h2         1 62C       0.078700
     35 H12         -3.5490     0.3690    -2.9920 ho         1 62C       0.424000
     36 H31         -3.4820    -1.7010    -0.0690 h1         1 62C       0.056700
     37 H32         -3.4470    -2.0420     2.2130 ho         1 62C       0.417000
     38 H42         -6.4810    -1.7400     1.7540 ho         1 62C       0.411000
     39 H63         -8.6330     0.6740    -1.5710 ho         1 62C       0.405000
     40 H131         3.9000     2.3870     1.7920 ha         1 62C       0.145000
     41 CL1          5.4510    -1.7470    -1.6000 cl         1 62C      -0.079400
@<TRIPOS>BOND
     1     1     2 1   
     2     1    19 1   
     3     1    21 1   
     4     1    24 1   
     5     2     3 1   
     6     2    22 1   
     7     2    25 1   
     8     3    23 1   
     9     3    26 1   
    10     3    27 1   
    11     4     5 1   
    12     4    14 2   
    13     4    15 1   
    14     5    13 2   
    15     5    28 1   
    16     6    11 ar  
    17     6    12 ar  
    18     6    40 1   
    19     7     9 ar  
    20     7    10 1   
    21     7    11 ar  
    22     8     9 ar  
    23     8    12 ar  
    24     8    29 1   
    25     9    41 1   
    26    11    30 1   
    27    12    13 1   
    28    13    31 1   
    29    15    16 1   
    30    15    32 1   
    31    16    17 1   
    32    16    19 1   
    33    16    33 1   
    34    17    18 1   
    35    17    22 1   
    36    17    34 1   
    37    18    35 1   
    38    19    20 1   
    39    19    36 1   
    40    20    37 1   
    41    21    38 1   
    42    23    39 1   
@<TRIPOS>SUBSTRUCTURE
     1 62C         1 TEMP              0 ****  ****    0 ROOT
