@<TRIPOS>MOLECULE
62C
   41    42     1     0     0
SMALL
No Charge or Current Charge


@<TRIPOS>ATOM
      1 C4          -5.2740    -0.9630     0.6960 c6         1 62C       0.102300
      2 C5          -5.7620    -0.1140    -0.5210 c6         1 62C       0.143300
      3 C6          -7.2860     0.2330    -0.4490 c3         1 62C       0.169600
      4 C8          -0.5730     0.9470     0.5280 c          1 62C       0.611300
      5 C10          0.8280     0.4820     0.3540 ce         1 62C      -0.283200
      6 C13          4.3340     1.9350     0.5550 ca         1 62C      -0.082000
      7 C15          6.1150     0.3400     0.0890 ca         1 62C       0.125000
      8 C17          3.7840    -0.3700     0.0180 ca         1 62C      -0.080000
      9 C16          5.1520    -0.6680    -0.1140 ca         1 62C       0.113000
     10 Cl2          7.8390     0.0000    -0.0680 cl         1 62C      -0.166000
     11 C14          5.7030     1.6400     0.4230 ca         1 62C      -0.100000
     12 C12          3.3610     0.9350     0.3540 ca         1 62C      -0.058800
     13 C11          1.9300     1.2770     0.4990 cf         1 62C      -0.089200
     14 O9          -0.8660     2.0970     0.8190 o          1 62C      -0.601100
     15 N7          -1.5240    -0.0200     0.3340 ns         1 62C      -0.488900
     16 C2          -2.9870     0.1800     0.4680 c6         1 62C       0.092700
     17 C1          -3.5880     1.0110    -0.7160 c6         1 62C       0.373300
     18 O1          -3.3360     0.4160    -1.9900 oh         1 62C      -0.686000
     19 C3          -3.7370    -1.1820     0.5710 c6         1 62C       0.159300
     20 O3          -3.2710    -1.9550     1.6900 oh         1 62C      -0.645000
     21 O4          -5.9420    -2.2430     0.7780 oh         1 62C      -0.721000
     22 O5          -5.0160     1.1360    -0.5760 os         1 62C      -0.462000
     23 O6          -7.7330     1.0670    -1.5360 oh         1 62C      -0.705000
     24 H41         -5.4620    -0.3830     1.6130 h1         1 62C       0.054700
     25 H51         -5.5930    -0.6810    -1.4490 h1         1 62C       0.074700
     26 H61         -7.8560    -0.7050    -0.4470 h1         1 62C       0.024200
     27 H62         -7.4780     0.7340     0.5100 h1         1 62C       0.024200
     28 H101         0.9470    -0.5670     0.0940 ha         1 62C       0.179000
     29 H171         3.0620    -1.1640    -0.1430 ha         1 62C       0.132000
     30 H141         6.4440     2.4190     0.5800 ha         1 62C       0.135000
     31 H111         1.7520     2.3230     0.7610 ha         1 62C       0.201000
     32 H71         -1.1900    -0.9490     0.1100 hn         1 62C       0.324500
     33 H21         -3.1690     0.7430     1.3940 h1         1 62C       0.105700
     34 H11         -3.1420     2.0180    -0.6920 h2         1 62C       0.078700
     35 H12         -3.8470     0.9610    -2.6250 ho         1 62C       0.463000
     36 H31         -3.5530    -1.7440    -0.3580 h1         1 62C       0.056700
     37 H32         -3.9730    -2.6320     1.8280 ho         1 62C       0.456000
     38 H42         -6.8130    -2.1010     1.2210 ho         1 62C       0.510000
     39 H63         -8.6760     1.2910    -1.3580 ho         1 62C       0.504000
     40 H131         4.0340     2.9480     0.8140 ha         1 62C       0.127000
     41 Cl1          5.6310    -2.3130    -0.5340 cl         1 62C      -0.171000
@<TRIPOS>BOND
     1     1     2 1   
     2     1    19 1   
     3     1    21 1   
     4     1    24 1   
     5     2     3 1   
     6     2    22 1   
     7     2    25 1   
     8     3    23 1   
     9     3    26 1   
    10     3    27 1   
    11     4     5 1   
    12     4    14 2   
    13     4    15 1   
    14     5    13 2   
    15     5    28 1   
    16     6    11 ar  
    17     6    12 ar  
    18     6    40 1   
    19     7     9 ar  
    20     7    10 1   
    21     7    11 ar  
    22     8     9 ar  
    23     8    12 ar  
    24     8    29 1   
    25     9    41 1   
    26    11    30 1   
    27    12    13 1   
    28    13    31 1   
    29    15    16 1   
    30    15    32 1   
    31    16    17 1   
    32    16    19 1   
    33    16    33 1   
    34    17    18 1   
    35    17    22 1   
    36    17    34 1   
    37    18    35 1   
    38    19    20 1   
    39    19    36 1   
    40    20    37 1   
    41    21    38 1   
    42    23    39 1   
@<TRIPOS>SUBSTRUCTURE
     1 62C         1 TEMP              0 ****  ****    0 ROOT
