@<TRIPOS>MOLECULE
62D
   33    35     1     0     0
SMALL
No Charge or Current Charge


@<TRIPOS>ATOM
      1 N1          -3.0260     1.2660    -0.0070 na         1 62D      -0.360600
      2 N3          -3.3800    -1.0140    -0.0060 nc         1 62D      -0.641100
      3 C4          -3.9160     0.2040    -0.0060 cd         1 62D       0.659700
      4 C5          -6.0190     1.5980    -0.0080 c3         1 62D       0.211100
      5 C6          -2.0260    -0.7120    -0.0060 ca         1 62D       0.069400
      6 C7          -0.9390    -1.5980    -0.0060 ca         1 62D       0.015000
      7 C8           0.3730    -1.0610    -0.0060 ca         1 62D      -0.241600
      8 C10          2.8530     0.0550    -0.0070 cc         1 62D       0.725800
      9 C1           0.5860     0.3380    -0.0070 ca         1 62D       0.231400
     10 C2          -0.5310     1.2000    -0.0070 ca         1 62D      -0.141000
     11 C3          -1.8120     0.6380    -0.0070 ca         1 62D      -0.031200
     12 N2          -5.2530     0.3430    -0.0060 nu         1 62D      -0.901400
     13 C9           1.5550    -1.9470    -0.0060 c          1 62D       0.593600
     14 O1           1.4960    -3.1660    -0.0050 o          1 62D      -0.546000
     15 N4           2.7320    -1.2900    -0.0060 ns         1 62D      -0.456400
     16 N5           4.1170     0.5410    -0.0070 nu         1 62D      -0.911400
     17 C11          4.5130     1.9570    -0.0080 c3         1 62D       0.236800
     18 N6           1.8590     0.9250    -0.0070 nd         1 62D      -0.714100
     19 C12          6.0440     2.0810    -0.0090 c3         1 62D      -0.113100
     20 HN1         -3.2460     2.2490    -0.0070 hn         1 62D       0.355000
     21 H5          -5.7810     2.1940     0.8840 h1         1 62D       0.038700
     22 H5A         -5.7810     2.1920    -0.9000 h1         1 62D       0.038700
     23 H5B         -7.0970     1.3900    -0.0080 h1         1 62D       0.038700
     24 H7          -1.1110    -2.6710    -0.0050 ha         1 62D       0.147000
     25 H2          -0.3960     2.2780    -0.0070 ha         1 62D       0.131000
     26 HN2         -5.7510    -0.5460    -0.0060 hn         1 62D       0.512000
     27 HN4          3.5590    -1.8620    -0.0060 hn         1 62D       0.321500
     28 HN5          4.8510    -0.1600    -0.0070 hn         1 62D       0.489000
     29 H11          4.1100     2.4640    -0.8960 h1         1 62D       0.056200
     30 H11A         4.1110     2.4650     0.8810 h1         1 62D       0.056200
     31 H12          6.4740     1.6080     0.8820 hc         1 62D       0.043700
     32 H12A         6.4730     1.6070    -0.9000 hc         1 62D       0.043700
     33 H12B         6.3370     3.1370    -0.0090 hc         1 62D       0.043700
@<TRIPOS>BOND
     1     1     3 1   
     2     1    11 1   
     3     1    20 1   
     4     2     3 2   
     5     2     5 1   
     6     3    12 1   
     7     4    12 1   
     8     4    21 1   
     9     4    22 1   
    10     4    23 1   
    11     5     6 ar  
    12     5    11 ar  
    13     6     7 ar  
    14     6    24 1   
    15     7     9 ar  
    16     7    13 1   
    17     8    15 1   
    18     8    16 1   
    19     8    18 2   
    20     9    10 ar  
    21     9    18 1   
    22    10    11 ar  
    23    10    25 1   
    24    12    26 1   
    25    13    14 2   
    26    13    15 1   
    27    15    27 1   
    28    16    17 1   
    29    16    28 1   
    30    17    19 1   
    31    17    29 1   
    32    17    30 1   
    33    19    31 1   
    34    19    32 1   
    35    19    33 1   
@<TRIPOS>SUBSTRUCTURE
     1 62D         1 TEMP              0 ****  ****    0 ROOT
