@<TRIPOS>MOLECULE
62D
   33    35     1     0     0
SMALL
abcg2


@<TRIPOS>ATOM
      1 N1          -3.0130     1.1750    -0.1090 na         1 62D      -0.360600
      2 N3          -3.3550    -1.0360    -0.0740 nc         1 62D      -0.641100
      3 C4          -3.9190     0.1460    -0.1090 cd         1 62D       0.659700
      4 C5          -5.8250     1.6780     0.0400 c3         1 62D       0.211100
      5 C6          -2.0020    -0.7820    -0.0530 ca         1 62D       0.069400
      6 C7          -0.9270    -1.6410    -0.0130 ca         1 62D       0.015000
      7 C8           0.3640    -1.0960     0.0050 ca         1 62D      -0.241600
      8 C10          2.8600     0.0430     0.0380 cc         1 62D       0.725800
      9 C1           0.5900     0.3000    -0.0180 ca         1 62D       0.231400
     10 C2          -0.5070     1.1740    -0.0600 ca         1 62D      -0.141000
     11 C3          -1.7630     0.6150    -0.0750 ca         1 62D      -0.031200
     12 N2          -5.2410     0.3740    -0.1660 nu         1 62D      -0.901400
     13 C9           1.5160    -1.9790     0.0480 c          1 62D       0.593600
     14 O1           1.4760    -3.2000     0.0710 o          1 62D      -0.546000
     15 N4           2.7250    -1.3220     0.0610 ns         1 62D      -0.456400
     16 N5           4.1210     0.5110     0.0280 nu         1 62D      -0.911400
     17 C11          4.4160     1.9270     0.1050 c3         1 62D       0.236800
     18 N6           1.8470     0.8480     0.0070 nd         1 62D      -0.714100
     19 C12          5.8920     2.1700    -0.1430 c3         1 62D      -0.113100
     20 HN1         -3.2200     2.1600    -0.1400 hn         1 62D       0.355000
     21 H5          -5.6000     2.0950     1.0250 h1         1 62D       0.038700
     22 H5A         -5.4920     2.3850    -0.7210 h1         1 62D       0.038700
     23 H5B         -6.9040     1.5880    -0.0520 h1         1 62D       0.038700
     24 H7          -1.0670    -2.7140     0.0050 ha         1 62D       0.147000
     25 H2          -0.3460     2.2440    -0.0780 ha         1 62D       0.131000
     26 HN2         -5.8220    -0.4310    -0.0010 hn         1 62D       0.512000
     27 HN4          3.5530    -1.9040     0.0760 hn         1 62D       0.321500
     28 HN5          4.8680    -0.1290     0.2490 hn         1 62D       0.489000
     29 H11          3.8190     2.4490    -0.6440 h1         1 62D       0.056200
     30 H11A         4.1240     2.3330     1.0790 h1         1 62D       0.056200
     31 H12          6.5110     1.6750     0.6070 hc         1 62D       0.043700
     32 H12A         6.1930     1.8100    -1.1270 hc         1 62D       0.043700
     33 H12B         6.1060     3.2370    -0.0930 hc         1 62D       0.043700
@<TRIPOS>BOND
     1     1     3 1   
     2     1    11 1   
     3     1    20 1   
     4     2     3 2   
     5     2     5 1   
     6     3    12 1   
     7     4    12 1   
     8     4    21 1   
     9     4    22 1   
    10     4    23 1   
    11     5     6 ar  
    12     5    11 ar  
    13     6     7 ar  
    14     6    24 1   
    15     7     9 ar  
    16     7    13 1   
    17     8    15 1   
    18     8    16 1   
    19     8    18 2   
    20     9    10 ar  
    21     9    18 1   
    22    10    11 ar  
    23    10    25 1   
    24    12    26 1   
    25    13    14 2   
    26    13    15 1   
    27    15    27 1   
    28    16    17 1   
    29    16    28 1   
    30    17    19 1   
    31    17    29 1   
    32    17    30 1   
    33    19    31 1   
    34    19    32 1   
    35    19    33 1   
@<TRIPOS>SUBSTRUCTURE
     1 62D         1 TEMP              0 ****  ****    0 ROOT
