@<TRIPOS>MOLECULE
62E
   66    71     1     0     0
SMALL
abcg2


@<TRIPOS>ATOM
      1 C4          19.6760   -12.8750    57.8350 ca         1 62E      -0.013000
      2 C5          20.0550   -12.8990    59.1700 ca         1 62E      -0.231000
      3 C6          20.7440   -11.8240    59.7640 ca         1 62E       0.144400
      4 C8          20.4980   -13.0830    61.5600 cc         1 62E       0.473800
      5 C11         18.7320   -10.1270    55.3310 cc         1 62E       0.338700
      6 C15         17.4650    -8.3930    55.7740 cc         1 62E      -0.138000
      7 C26         15.0410   -10.5340    61.3600 cc         1 62E      -0.141000
      8 C3          21.0980   -10.7210    58.9830 ca         1 62E      -0.075000
      9 C2          20.7470   -10.7010    57.6440 ca         1 62E      -0.074000
     10 C25         15.1870    -9.6850    60.2350 cc         1 62E      -0.095000
     11 C27         15.8700   -11.6210    61.3050 cd         1 62E      -0.239000
     12 C1          20.0230   -11.7600    57.0810 ca         1 62E      -0.140000
     13 C20         16.1240   -10.1420    59.3360 cd         1 62E      -0.307500
     14 C16         16.5530    -7.6520    56.5580 cc         1 62E      -0.026000
     15 C17         16.1080    -8.2200    57.7080 cd         1 62E      -0.135000
     16 C18         16.5550    -9.5340    58.0880 cd         1 62E       0.421500
     17 C22         20.0700   -14.5750    63.4530 c          1 62E       0.655100
     18 C32         18.1270   -17.0400    67.9220 c6         1 62E      -0.073900
     19 C36         17.1750   -17.8260    65.7450 c6         1 62E      -0.073900
     20 C33         17.2290   -17.9890    68.7300 c6         1 62E       0.178300
     21 C35         16.9620   -19.0950    66.5870 c6         1 62E       0.178300
     22 C31         17.4300   -16.5940    66.6360 c6         1 62E      -0.049700
     23 C38         16.5030   -21.0420    68.9420 c3         1 62E      -0.130100
     24 C30         18.1560   -15.4620    65.9010 c3         1 62E      -0.100400
     25 C29         19.6210   -15.7420    65.5600 c3         1 62E       0.113000
     26 N7          20.9830   -11.9610    61.1170 nd         1 62E      -0.620100
     27 N13         18.1050    -8.1420    54.6430 nd         1 62E      -0.075000
     28 N12         18.9020    -9.2230    54.3820 nd         1 62E      -0.330700
     29 N19         17.3840   -10.2430    57.3550 nc         1 62E      -0.463800
     30 N14         17.8210    -9.6460    56.2360 na         1 62E       0.132000
     31 N21         20.5990   -13.4230    62.8800 ns         1 62E      -0.420400
     32 N23         20.2210   -14.6600    64.7890 ns         1 62E      -0.507900
     33 N34         16.3300   -18.7440    67.8530 n3         1 62E      -0.746600
     34 O24         19.5290   -15.4350    62.7600 o          1 62E      -0.614100
     35 S28         16.8370   -11.6280    59.8880 ss         1 62E       0.296000
     36 S9          19.7050   -14.1170    60.3730 ss         1 62E       0.112800
     37 S10         19.4880   -11.6970    55.3780 ss         1 62E       0.051800
     38 H1          19.0930   -13.6770    57.4010 ha         1 62E       0.135000
     39 H2          14.3540   -10.3450    62.1720 ha         1 62E       0.138000
     40 H3          21.6340    -9.8930    59.4280 ha         1 62E       0.133000
     41 H4          21.0130    -9.8490    57.0320 ha         1 62E       0.130000
     42 H5          14.6190    -8.7770    60.0970 ha         1 62E       0.133000
     43 H6          15.9670   -12.4200    62.0230 h4         1 62E       0.154000
     44 H7          16.2430    -6.6670    56.2380 ha         1 62E       0.153000
     45 H8          15.4240    -7.6880    58.3510 ha         1 62E       0.138000
     46 H9          19.0630   -17.5460    67.6710 hc         1 62E       0.041950
     47 H10         18.3940   -16.1780    68.5390 hc         1 62E       0.041950
     48 H11         16.2970   -17.6390    65.1230 hc         1 62E       0.041950
     49 H12         18.0150   -17.9920    65.0660 hc         1 62E       0.041950
     50 H13         17.8690   -18.6520    69.3320 h1         1 62E       0.031200
     51 H14         16.6110   -17.4200    69.4320 h1         1 62E       0.031200
     52 H15         16.3120   -19.7940    66.0590 h1         1 62E       0.031200
     53 H16         17.9230   -19.6130    66.7370 h1         1 62E       0.031200
     54 H17         16.4530   -16.1950    66.9260 hc         1 62E       0.062700
     55 H18         15.8770   -21.7890    69.4350 hc         1 62E       0.036367
     56 H19         16.9700   -21.5150    68.0760 hc         1 62E       0.036367
     57 H20         17.2910   -20.7550    69.6400 hc         1 62E       0.036367
     58 H21         18.1150   -14.5550    66.5120 hc         1 62E       0.047200
     59 H22         17.6220   -15.2410    64.9720 hc         1 62E       0.047200
     60 H23         19.7220   -16.6590    64.9830 h1         1 62E       0.063700
     61 H24         20.2160   -15.8550    66.4650 h1         1 62E       0.063700
     62 H25         15.1520   -19.4260    69.4100 h1         1 62E       0.049200
     63 H26         14.8500   -20.1910    67.8570 h1         1 62E       0.049200
     64 H27         21.0600   -12.7350    63.4610 hn         1 62E       0.335500
     65 H28         20.5740   -13.8640    65.2980 hn         1 62E       0.314500
     66 C37         15.6430   -19.8410    68.5250 c3         1 62E       0.177800
@<TRIPOS>BOND
     1     1     2 ar  
     2     1    12 ar  
     3     1    38 1   
     4     2     3 ar  
     5     2    36 1   
     6     3     8 ar  
     7     3    26 1   
     8     4    26 2   
     9     4    31 1   
    10     4    36 1   
    11     5    28 2   
    12     5    30 1   
    13     5    37 1   
    14     6    14 1   
    15     6    27 2   
    16     6    30 1   
    17     7    10 1   
    18     7    11 2   
    19     7    39 1   
    20     8     9 ar  
    21     8    40 1   
    22     9    12 ar  
    23     9    41 1   
    24    10    13 2   
    25    10    42 1   
    26    11    35 1   
    27    11    43 1   
    28    12    37 1   
    29    13    16 1   
    30    13    35 1   
    31    14    15 2   
    32    14    44 1   
    33    15    16 1   
    34    15    45 1   
    35    16    29 2   
    36    17    31 1   
    37    17    32 1   
    38    17    34 2   
    39    18    20 1   
    40    18    22 1   
    41    18    46 1   
    42    18    47 1   
    43    19    21 1   
    44    19    22 1   
    45    19    48 1   
    46    19    49 1   
    47    20    33 1   
    48    20    50 1   
    49    20    51 1   
    50    21    33 1   
    51    21    52 1   
    52    21    53 1   
    53    22    24 1   
    54    22    54 1   
    55    23    55 1   
    56    23    56 1   
    57    23    57 1   
    58    23    66 1   
    59    24    25 1   
    60    24    58 1   
    61    24    59 1   
    62    25    32 1   
    63    25    60 1   
    64    25    61 1   
    65    27    28 1   
    66    29    30 1   
    67    31    64 1   
    68    32    65 1   
    69    33    66 1   
    70    62    66 1   
    71    63    66 1   
@<TRIPOS>SUBSTRUCTURE
     1 62E         1 TEMP              0 ****  ****    0 ROOT
