@<TRIPOS>MOLECULE
62E
   66    71     1     0     0
SMALL
No Charge or Current Charge


@<TRIPOS>ATOM
      1 C4          19.6540   -12.5820    57.5930 ca         1 62E      -0.013000
      2 C5          19.9330   -12.7390    58.9590 ca         1 62E      -0.231000
      3 C6          20.6760   -11.8170    59.6650 ca         1 62E       0.144400
      4 C8          20.2500   -13.2300    61.2970 cc         1 62E       0.473800
      5 C11         19.1810    -9.5580    55.4270 cc         1 62E       0.338700
      6 C15         17.8660    -7.8930    55.9910 cc         1 62E      -0.138000
      7 C26         14.4620   -10.6700    60.6440 cc         1 62E      -0.141000
      8 C3          21.1860   -10.6850    59.0120 ca         1 62E      -0.075000
      9 C2          20.9240   -10.4960    57.6400 ca         1 62E      -0.074000
     10 C25         14.9150    -9.6780    59.7390 cc         1 62E      -0.095000
     11 C27         15.0980   -11.8780    60.5130 cd         1 62E      -0.239000
     12 C1          20.1430   -11.4390    56.9290 ca         1 62E      -0.140000
     13 C20         15.9110   -10.1350    58.9030 cd         1 62E      -0.307500
     14 C16         16.8570    -7.2240    56.7290 cc         1 62E      -0.026000
     15 C17         16.2050    -7.9490    57.6970 cd         1 62E      -0.135000
     16 C18         16.5730    -9.3440    57.8900 cd         1 62E       0.421500
     17 C22         19.7780   -14.7780    63.1590 c          1 62E       0.655100
     18 C32         18.1570   -16.9440    68.1080 c6         1 62E      -0.073900
     19 C36         17.4160   -18.2430    66.0540 c6         1 62E      -0.073900
     20 C33         17.6390   -18.1450    68.9530 c6         1 62E       0.178300
     21 C35         16.7260   -19.3020    66.9640 c6         1 62E       0.178300
     22 C31         17.4720   -16.8400    66.7140 c6         1 62E      -0.049700
     23 C38         16.6090   -21.0320    69.5980 c3         1 62E      -0.130100
     24 C30         18.0980   -15.7450    65.7930 c3         1 62E      -0.100400
     25 C29         19.5660   -15.9680    65.3580 c3         1 62E       0.113000
     26 N7          20.8730   -12.0820    61.0150 nd         1 62E      -0.620100
     27 N13         18.6380    -7.4820    54.9960 nd         1 62E      -0.075000
     28 N12         19.4360    -8.5540    54.6000 nd         1 62E      -0.330700
     29 N19         17.5150    -9.9960    57.1910 nc         1 62E      -0.463800
     30 N14         18.1600    -9.1910    56.2670 na         1 62E       0.132000
     31 N21         20.3220   -13.6580    62.5990 ns         1 62E      -0.420400
     32 N23         20.0520   -14.8850    64.4990 ns         1 62E      -0.507900
     33 N34         16.4480   -18.8010    68.3440 n3         1 62E      -0.746600
     34 O24         19.1210   -15.6030    62.5500 o          1 62E      -0.614100
     35 S28         16.3160   -11.8340    59.2250 ss         1 62E       0.296000
     36 S9          19.3980   -14.0710    59.9680 ss         1 62E       0.112800
     37 S10         19.7610   -11.2140    55.1850 ss         1 62E       0.051800
     38 H1          19.0580   -13.3200    57.0600 ha         1 62E       0.135000
     39 H2          13.6800   -10.4720    61.3720 ha         1 62E       0.138000
     40 H3          21.7780    -9.9590    59.5630 ha         1 62E       0.133000
     41 H4          21.3260    -9.6190    57.1380 ha         1 62E       0.130000
     42 H5          14.4890    -8.6810    59.7480 ha         1 62E       0.133000
     43 H6          14.9390   -12.7880    61.0790 h4         1 62E       0.154000
     44 H7          16.6190    -6.1840    56.5230 ha         1 62E       0.153000
     45 H8          15.4350    -7.4690    58.2830 ha         1 62E       0.138000
     46 H9          19.2440   -17.0440    67.9990 hc         1 62E       0.041950
     47 H10         17.9910   -16.0100    68.6630 hc         1 62E       0.041950
     48 H11         16.8900   -18.1900    65.0900 hc         1 62E       0.041950
     49 H12         18.4330   -18.5890    65.8290 hc         1 62E       0.041950
     50 H13         18.4560   -18.8740    69.0550 h1         1 62E       0.031200
     51 H14         17.4040   -17.7870    69.9670 h1         1 62E       0.031200
     52 H15         15.7820   -19.6090    66.4910 h1         1 62E       0.031200
     53 H16         17.3670   -20.1940    66.9960 h1         1 62E       0.031200
     54 H17         16.4350   -16.5110    66.8770 hc         1 62E       0.062700
     55 H18         16.0280   -21.6860    70.2590 hc         1 62E       0.036367
     56 H19         16.8800   -21.6110    68.7090 hc         1 62E       0.036367
     57 H20         17.5270   -20.7510    70.1280 hc         1 62E       0.036367
     58 H21         18.0350   -14.7740    66.3000 hc         1 62E       0.047200
     59 H22         17.4820   -15.6500    64.8910 hc         1 62E       0.047200
     60 H23         19.6570   -16.9180    64.8160 h1         1 62E       0.063700
     61 H24         20.2140   -16.0210    66.2420 h1         1 62E       0.063700
     62 H25         15.4720   -19.2910    70.1600 h1         1 62E       0.049200
     63 H26         14.8460   -20.1310    68.7470 h1         1 62E       0.049200
     64 H27         20.8430   -13.0660    63.2250 hn         1 62E       0.335500
     65 H28         20.6100   -14.1550    64.9240 hn         1 62E       0.314500
     66 C37         15.7730   -19.7870    69.2270 c3         1 62E       0.177800
@<TRIPOS>BOND
     1     1     2 ar  
     2     1    12 ar  
     3     1    38 1   
     4     2     3 ar  
     5     2    36 1   
     6     3     8 ar  
     7     3    26 1   
     8     4    26 2   
     9     4    31 1   
    10     4    36 1   
    11     5    28 2   
    12     5    30 1   
    13     5    37 1   
    14     6    14 1   
    15     6    27 2   
    16     6    30 1   
    17     7    10 1   
    18     7    11 2   
    19     7    39 1   
    20     8     9 ar  
    21     8    40 1   
    22     9    12 ar  
    23     9    41 1   
    24    10    13 2   
    25    10    42 1   
    26    11    35 1   
    27    11    43 1   
    28    12    37 1   
    29    13    16 1   
    30    13    35 1   
    31    14    15 2   
    32    14    44 1   
    33    15    16 1   
    34    15    45 1   
    35    16    29 2   
    36    17    31 1   
    37    17    32 1   
    38    17    34 2   
    39    18    20 1   
    40    18    22 1   
    41    18    46 1   
    42    18    47 1   
    43    19    21 1   
    44    19    22 1   
    45    19    48 1   
    46    19    49 1   
    47    20    33 1   
    48    20    50 1   
    49    20    51 1   
    50    21    33 1   
    51    21    52 1   
    52    21    53 1   
    53    22    24 1   
    54    22    54 1   
    55    23    55 1   
    56    23    56 1   
    57    23    57 1   
    58    23    66 1   
    59    24    25 1   
    60    24    58 1   
    61    24    59 1   
    62    25    32 1   
    63    25    60 1   
    64    25    61 1   
    65    27    28 1   
    66    29    30 1   
    67    31    64 1   
    68    32    65 1   
    69    33    66 1   
    70    62    66 1   
    71    63    66 1   
@<TRIPOS>SUBSTRUCTURE
     1 62E         1 TEMP              0 ****  ****    0 ROOT
