@<TRIPOS>MOLECULE
62G
   42    45     1     0     0
SMALL
No Charge or Current Charge


@<TRIPOS>ATOM
      1 N3          13.5210    -4.6350     0.4800 nc         1 62G      -0.358300
      2 C5          12.7490    -6.3940    -0.7500 cc         1 62G       0.200300
      3 C6          11.7070    -5.9180    -0.0260 cd         1 62G      -0.189000
      4 C7          10.3310    -6.4240    -0.1370 ca         1 62G       0.031000
      5 C8           9.4730    -6.3710     0.9810 ca         1 62G      -0.109000
      6 C10          7.7230    -7.5000    -0.2630 ca         1 62G      -0.115000
      7 C13         10.6490    -6.9650    -2.6360 ce         1 62G       0.545500
      8 C15         12.7940    -7.6080    -1.6460 c3         1 62G       0.095200
      9 C17         14.2010    -7.9210    -2.2080 c3         1 62G      -0.141400
     10 C21          9.9480    -6.4500    -3.8640 ca         1 62G      -0.140900
     11 C22          8.9340    -5.4690    -3.7530 ca         1 62G      -0.068500
     12 C24          8.6920    -5.3990    -6.1730 ca         1 62G       0.135000
     13 C26          9.7140    -6.3520    -6.3020 ca         1 62G      -0.111500
     14 C9           8.1770    -6.9050     0.9210 ca         1 62G      -0.090000
     15 C11          8.5580    -7.5440    -1.3890 ca         1 62G      -0.075000
     16 C27         10.3450    -6.8680    -5.1570 ca         1 62G      -0.068500
     17 C23          8.3060    -4.9550    -4.9000 ca         1 62G      -0.111500
     18 C12          9.8620    -6.9990    -1.3490 ca         1 62G      -0.184900
     19 C2          12.2280    -4.8140     0.6910 cd         1 62G       0.309300
     20 C18         14.2270    -9.2540    -2.9570 c          1 62G       0.609100
     21 C1          11.4830    -3.8520     1.5780 c3         1 62G      -0.136400
     22 N14         11.8550    -7.4410    -2.7640 n2         1 62G      -0.586900
     23 N19         14.2450    -9.1890    -4.3050 nt         1 62G      -0.603000
     24 O20         14.2620   -10.3350    -2.3930 o          1 62G      -0.618100
     25 O4          13.8800    -5.6730    -0.4520 os         1 62G      -0.079700
     26 Cl25         7.9060    -4.7530    -7.6070 cl         1 62G      -0.209000
     27 H1           9.8190    -5.9560     1.9230 ha         1 62G       0.118000
     28 H2           6.7200    -7.9190    -0.3120 ha         1 62G       0.121000
     29 H3          12.4850    -8.4650    -1.0290 h1         1 62G       0.099700
     30 H4          14.9030    -7.9910    -1.3700 hc         1 62G       0.075200
     31 H5          14.4960    -7.1060    -2.8790 hc         1 62G       0.075200
     32 H6           8.6320    -5.0940    -2.7760 ha         1 62G       0.130500
     33 H7          10.0180    -6.6880    -7.2900 ha         1 62G       0.132500
     34 H8           7.5310    -6.8700     1.7960 ha         1 62G       0.118000
     35 H9           8.1810    -7.9900    -2.3080 ha         1 62G       0.125000
     36 H10         11.1370    -7.6050    -5.2810 ha         1 62G       0.130500
     37 H11          7.5230    -4.2060    -4.8030 ha         1 62G       0.132500
     38 H12         12.0000    -2.8880     1.6430 hc         1 62G       0.060367
     39 H13         10.4770    -3.6590     1.1900 hc         1 62G       0.060367
     40 H14         11.3910    -4.2500     2.5940 hc         1 62G       0.060367
     41 H15         14.2660   -10.0430    -4.8410 hn         1 62G       0.316500
     42 H16         14.2010    -8.2930    -4.7670 hn         1 62G       0.316500
@<TRIPOS>BOND
     1     1    19 2   
     2     1    25 1   
     3     2     3 2   
     4     2     8 1   
     5     2    25 1   
     6     3     4 1   
     7     3    19 1   
     8     4     5 ar  
     9     4    18 ar  
    10     5    14 ar  
    11     5    27 1   
    12     6    14 ar  
    13     6    15 ar  
    14     6    28 1   
    15     7    10 1   
    16     7    18 1   
    17     7    22 2   
    18     8     9 1   
    19     8    22 1   
    20     8    29 1   
    21     9    20 1   
    22     9    30 1   
    23     9    31 1   
    24    10    11 ar  
    25    10    16 ar  
    26    11    17 ar  
    27    11    32 1   
    28    12    13 ar  
    29    12    17 ar  
    30    12    26 1   
    31    13    16 ar  
    32    13    33 1   
    33    14    34 1   
    34    15    18 ar  
    35    15    35 1   
    36    16    36 1   
    37    17    37 1   
    38    19    21 1   
    39    20    23 1   
    40    20    24 2   
    41    21    38 1   
    42    21    39 1   
    43    21    40 1   
    44    23    41 1   
    45    23    42 1   
@<TRIPOS>SUBSTRUCTURE
     1 62G         1 TEMP              0 ****  ****    0 ROOT
