@<TRIPOS>MOLECULE
62G
   42    45     1     0     0
SMALL
abcg2


@<TRIPOS>ATOM
      1 N3          13.5610    -4.7010     0.5230 nc         1 62G      -0.358300
      2 C5          12.7670    -6.3820    -0.7070 cc         1 62G       0.200300
      3 C6          11.7020    -5.8600    -0.0380 cd         1 62G      -0.189000
      4 C7          10.3460    -6.3800    -0.1560 ca         1 62G       0.031000
      5 C8           9.4890    -6.3910     0.9510 ca         1 62G      -0.109000
      6 C10          7.7820    -7.5120    -0.3220 ca         1 62G      -0.115000
      7 C13         10.6570    -6.8190    -2.6550 ce         1 62G       0.545500
      8 C15         12.7240    -7.4960    -1.6940 c3         1 62G       0.095200
      9 C17         14.0930    -7.9300    -2.1970 c3         1 62G      -0.141400
     10 C21          9.8950    -6.3980    -3.8660 ca         1 62G      -0.140900
     11 C22          8.8880    -5.4330    -3.7850 ca         1 62G      -0.068500
     12 C24          8.5430    -5.5710    -6.1470 ca         1 62G       0.135000
     13 C26          9.5340    -6.5400    -6.2570 ca         1 62G      -0.111500
     14 C9           8.2240    -6.9510     0.8750 ca         1 62G      -0.090000
     15 C11          8.6000    -7.4720    -1.4380 ca         1 62G      -0.075000
     16 C27         10.2090    -6.9410    -5.1140 ca         1 62G      -0.068500
     17 C23          8.2150    -5.0080    -4.9220 ca         1 62G      -0.111500
     18 C12          9.8840    -6.9120    -1.3830 ca         1 62G      -0.184900
     19 C2          12.2720    -4.7980     0.7360 cd         1 62G       0.309300
     20 C18         13.9720    -9.1480    -3.0980 c          1 62G       0.609100
     21 C1          11.5970    -3.8460     1.6630 c3         1 62G      -0.136400
     22 N14         11.9050    -7.0440    -2.8220 n2         1 62G      -0.586900
     23 N19         14.7230    -9.1290    -4.2120 nt         1 62G      -0.603000
     24 O20         13.2460   -10.0970    -2.8030 o          1 62G      -0.618100
     25 O4          13.8870    -5.7190    -0.4010 os         1 62G      -0.079700
     26 CL25         7.6870    -5.0560    -7.5830 cl         1 62G      -0.209000
     27 H1           9.8340    -5.9810     1.8890 ha         1 62G       0.118000
     28 H2           6.8030    -7.9670    -0.3850 ha         1 62G       0.121000
     29 H3          12.2390    -8.3490    -1.2030 h1         1 62G       0.099700
     30 H4          14.7220    -8.2170    -1.3510 hc         1 62G       0.075200
     31 H5          14.5820    -7.1050    -2.7150 hc         1 62G       0.075200
     32 H6           8.6320    -4.9970    -2.8290 ha         1 62G       0.130500
     33 H7           9.7690    -6.9740    -7.2180 ha         1 62G       0.132500
     34 H8           7.5870    -6.9600     1.7500 ha         1 62G       0.118000
     35 H9           8.2450    -7.8800    -2.3740 ha         1 62G       0.125000
     36 H10         10.9830    -7.6930    -5.1830 ha         1 62G       0.130500
     37 H11          7.4460    -4.2520    -4.8560 ha         1 62G       0.132500
     38 H12         12.2680    -3.0260     1.9150 hc         1 62G       0.060367
     39 H13         10.6940    -3.4430     1.2020 hc         1 62G       0.060367
     40 H14         11.3020    -4.3490     2.5860 hc         1 62G       0.060367
     41 H15         14.7270    -9.9300    -4.8250 hn         1 62G       0.316500
     42 H16         15.3160    -8.3490    -4.4400 hn         1 62G       0.316500
@<TRIPOS>BOND
     1     1    19 2   
     2     1    25 1   
     3     2     3 2   
     4     2     8 1   
     5     2    25 1   
     6     3     4 1   
     7     3    19 1   
     8     4     5 ar  
     9     4    18 ar  
    10     5    14 ar  
    11     5    27 1   
    12     6    14 ar  
    13     6    15 ar  
    14     6    28 1   
    15     7    10 1   
    16     7    18 1   
    17     7    22 2   
    18     8     9 1   
    19     8    22 1   
    20     8    29 1   
    21     9    20 1   
    22     9    30 1   
    23     9    31 1   
    24    10    11 ar  
    25    10    16 ar  
    26    11    17 ar  
    27    11    32 1   
    28    12    13 ar  
    29    12    17 ar  
    30    12    26 1   
    31    13    16 ar  
    32    13    33 1   
    33    14    34 1   
    34    15    18 ar  
    35    15    35 1   
    36    16    36 1   
    37    17    37 1   
    38    19    21 1   
    39    20    23 1   
    40    20    24 2   
    41    21    38 1   
    42    21    39 1   
    43    21    40 1   
    44    23    41 1   
    45    23    42 1   
@<TRIPOS>SUBSTRUCTURE
     1 62G         1 TEMP              0 ****  ****    0 ROOT
