@<TRIPOS>MOLECULE
62H
   15    14     1     0     0
SMALL
bcc


@<TRIPOS>ATOM
      1 N            2.6530     0.2340     0.2970 n8         1 62H      -0.897800
      2 CA           0.2400    -0.3070     0.2660 c3         1 62H      -0.193700
      3 CB           1.3260     0.7000    -0.0970 c3         1 62H       0.160800
      4 C           -1.1850     0.2500     0.0310 c          1 62H       0.928600
      5 CG           0.4500    -1.6430    -0.4390 c3         1 62H      -0.059100
      6 O1          -2.1100    -0.5840    -0.0550 o          1 62H      -0.845800
      7 H1           2.9560    -0.5070    -0.3220 hn         1 62H       0.309800
      8 H2           3.3190     0.9830     0.1580 hn         1 62H       0.309800
      9 H4           0.3250    -0.4880     1.3480 hc         1 62H       0.038700
     10 H5           1.1320     1.6350     0.4290 h1         1 62H       0.031200
     11 H6           1.2520     0.9310    -1.1710 h1         1 62H       0.031200
     12 H7           0.4140    -1.5240    -1.5260 hc         1 62H       0.010367
     13 H8           1.4150    -2.0880    -0.1880 hc         1 62H       0.010367
     14 H9          -0.3200    -2.3600    -0.1610 hc         1 62H       0.010367
     15 O           -1.3160     1.4900    -0.0230 o          1 62H      -0.845800
@<TRIPOS>BOND
     1     1     3 1   
     2     1     7 1   
     3     1     8 1   
     4     2     3 1   
     5     2     4 1   
     6     2     5 1   
     7     2     9 1   
     8     3    10 1   
     9     3    11 1   
    10     4     6 1   
    11     4    15 1   
    12     5    12 1   
    13     5    13 1   
    14     5    14 1   
@<TRIPOS>SUBSTRUCTURE
     1 62H         1 TEMP              0 ****  ****    0 ROOT
