@<TRIPOS>MOLECULE
62J
   49    51     1     0     0
SMALL
abcg2


@<TRIPOS>ATOM
      1 C10         16.8810    -9.3610     0.5190 c6         1 62J      -0.063400
      2 N12         16.0710   -14.2770    -0.6760 n7         1 62J      -0.871400
      3 C13         17.0870   -15.0500     0.0360 c3         1 62J       0.211100
      4 C15         17.4160   -15.5090     2.4890 ca         1 62J      -0.102000
      5 C17         17.8800   -15.9000     4.9140 cc         1 62J      -0.053000
      6 C20         18.7390   -16.4870     7.0050 cd         1 62J      -0.240000
      7 C21         17.8280   -16.7890     6.0380 cc         1 62J      -0.119000
      8 C22         15.7300   -16.5700     3.8340 ca         1 62J      -0.099000
      9 C24         15.3260   -16.1370     1.4940 ca         1 62J      -0.086000
     10 O01         18.9270    -7.6890     1.7080 o          1 62J      -0.486000
     11 C02         19.2400    -8.5310     0.8930 c          1 62J       0.588100
     12 O03         20.4480    -8.5680     0.3100 os         1 62J      -0.453100
     13 C04         21.3990    -7.5640     0.7190 c3         1 62J       0.151900
     14 C05         18.3740    -9.6770     0.4420 c6         1 62J      -0.121700
     15 C06         18.6990   -10.9270     1.3070 c6         1 62J      -0.063400
     16 C07         17.5170   -11.9090     1.3520 c6         1 62J      -0.071400
     17 C08         16.7280   -11.8890     0.0400 c6         1 62J      -0.096700
     18 C09         16.0610   -10.5040    -0.1060 c6         1 62J      -0.071400
     19 C11         15.6660   -12.9990    -0.0880 c3         1 62J       0.160800
     20 C14         16.5950   -15.5660     1.3690 ca         1 62J      -0.086300
     21 C16         17.0030   -16.0000     3.7350 ca         1 62J      -0.014000
     22 C18         18.8480   -14.9390     5.0840 cd         1 62J      -0.237000
     23 S19         19.6780   -15.1100     6.5770 ss         1 62J       0.195000
     24 C23         14.9020   -16.6360     2.7190 ca         1 62J      -0.116000
     25 H1          16.6060    -9.2250     1.5670 hc         1 62J       0.051450
     26 H2          16.6620    -8.4190     0.0150 hc         1 62J       0.051450
     27 H3          16.3860   -14.1210    -1.6270 hn         1 62J       0.412000
     28 H5          17.3370   -15.9020    -0.6020 h1         1 62J       0.037200
     29 H6          18.0240   -14.5020     0.1950 h1         1 62J       0.037200
     30 H7          18.4050   -15.0800     2.3910 ha         1 62J       0.108000
     31 H8          18.9190   -17.0010     7.9360 h4         1 62J       0.151000
     32 H9          17.1520   -17.6290     6.1080 ha         1 62J       0.135000
     33 H10         15.3770   -16.9430     4.7860 ha         1 62J       0.113000
     34 H11         14.6760   -16.1800     0.6300 ha         1 62J       0.128000
     35 H12         22.2990    -7.7660     0.1470 h1         1 62J       0.049033
     36 H13         21.0180    -6.5690     0.4920 h1         1 62J       0.049033
     37 H14         21.5980    -7.6460     1.7870 h1         1 62J       0.049033
     38 H15         18.6400    -9.8960    -0.5940 hc         1 62J       0.073700
     39 H16         18.9510   -10.6140     2.3240 hc         1 62J       0.051450
     40 H17         19.5820   -11.4190     0.8960 hc         1 62J       0.051450
     41 H18         17.8900   -12.9040     1.5860 hc         1 62J       0.044450
     42 H19         16.8360   -11.6400     2.1660 hc         1 62J       0.044450
     43 H20         17.4360   -12.0230    -0.7860 hc         1 62J       0.040700
     44 H21         15.8870   -10.3040    -1.1670 hc         1 62J       0.044450
     45 H22         15.0770   -10.5330     0.3710 hc         1 62J       0.044450
     46 H23         14.8540   -12.6230    -0.7160 h1         1 62J       0.056200
     47 H24         15.2300   -13.1940     0.8970 h1         1 62J       0.056200
     48 H25         19.0960   -14.1270     4.4200 h4         1 62J       0.149000
     49 H26         13.9160   -17.0750     2.8100 ha         1 62J       0.113000
@<TRIPOS>BOND
     1     1    14 1   
     2     1    18 1   
     3     1    25 1   
     4     1    26 1   
     5     2     3 1   
     6     2    19 1   
     7     2    27 1   
     8     3    20 1   
     9     3    28 1   
    10     3    29 1   
    11     4    20 ar  
    12     4    21 ar  
    13     4    30 1   
    14     5     7 1   
    15     5    21 1   
    16     5    22 2   
    17     6     7 2   
    18     6    23 1   
    19     6    31 1   
    20     7    32 1   
    21     8    21 ar  
    22     8    24 ar  
    23     8    33 1   
    24     9    20 ar  
    25     9    24 ar  
    26     9    34 1   
    27    10    11 2   
    28    11    12 1   
    29    11    14 1   
    30    12    13 1   
    31    13    35 1   
    32    13    36 1   
    33    13    37 1   
    34    14    15 1   
    35    14    38 1   
    36    15    16 1   
    37    15    39 1   
    38    15    40 1   
    39    16    17 1   
    40    16    41 1   
    41    16    42 1   
    42    17    18 1   
    43    17    19 1   
    44    17    43 1   
    45    18    44 1   
    46    18    45 1   
    47    19    46 1   
    48    19    47 1   
    49    22    23 1   
    50    22    48 1   
    51    24    49 1   
@<TRIPOS>SUBSTRUCTURE
     1 62J         1 TEMP              0 ****  ****    0 ROOT
