@<TRIPOS>MOLECULE
62J
   49    51     1     0     0
SMALL
No Charge or Current Charge


@<TRIPOS>ATOM
      1 C10         17.2410    -9.4810     1.2280 c6         1 62J      -0.063400
      2 N12         16.1980   -14.2050    -0.6330 n7         1 62J      -0.871400
      3 C13         17.0480   -15.3030    -0.1180 c3         1 62J       0.211100
      4 C15         17.1930   -15.6080     2.4090 ca         1 62J      -0.102000
      5 C17         17.4030   -15.8370     4.9250 cc         1 62J      -0.053000
      6 C20         17.8650   -15.8930     7.2270 cd         1 62J      -0.240000
      7 C21         17.0590   -16.3380     6.2130 cc         1 62J      -0.119000
      8 C22         15.5490   -16.9120     3.6220 ca         1 62J      -0.099000
      9 C24         15.3610   -16.6650     1.2080 ca         1 62J      -0.086000
     10 O01         19.9810    -8.2250     2.0900 o          1 62J      -0.486000
     11 C02         19.6260    -8.5100     0.9540 c          1 62J       0.588100
     12 O03         20.0390    -7.8350    -0.1670 os         1 62J      -0.453100
     13 C04         20.9400    -6.7240     0.0030 c3         1 62J       0.151900
     14 C05         18.6660    -9.6790     0.6580 c6         1 62J      -0.121700
     15 C06         19.2740   -11.0810     0.9510 c6         1 62J      -0.063400
     16 C07         18.1910   -12.1840     1.1250 c6         1 62J      -0.071400
     17 C08         16.9270   -11.9030     0.2600 c6         1 62J      -0.096700
     18 C09         16.2490   -10.5700     0.7220 c6         1 62J      -0.071400
     19 C11         15.8750   -13.0610     0.2580 c3         1 62J       0.160800
     20 C14         16.5220   -15.8740     1.1980 ca         1 62J      -0.086300
     21 C16         16.7180   -16.1160     3.6430 ca         1 62J      -0.014000
     22 C18         18.4860   -14.9860     4.9720 cd         1 62J      -0.237000
     23 S19         19.1150   -14.8010     6.6190 ss         1 62J       0.195000
     24 C23         14.8780   -17.1830     2.4180 ca         1 62J      -0.116000
     25 H1          17.2900    -9.5150     2.3250 hc         1 62J       0.051450
     26 H2          16.8600    -8.4830     0.9700 hc         1 62J       0.051450
     27 H3          16.6000   -13.8450    -1.5070 hn         1 62J       0.412000
     28 H5          17.0760   -16.1170    -0.8550 h1         1 62J       0.037200
     29 H6          18.0860   -14.9770     0.0090 h1         1 62J       0.037200
     30 H7          18.0910   -15.0030     2.3670 ha         1 62J       0.108000
     31 H8          17.8110   -16.1280     8.2830 h4         1 62J       0.151000
     32 H9          16.2310   -17.0180     6.3830 ha         1 62J       0.135000
     33 H10         15.1410   -17.3260     4.5380 ha         1 62J       0.113000
     34 H11         14.8330   -16.8720     0.2800 ha         1 62J       0.128000
     35 H12         21.1850    -6.2800    -0.9700 h1         1 62J       0.049033
     36 H13         20.4870    -5.9440     0.6280 h1         1 62J       0.049033
     37 H14         21.8770    -7.0490     0.4740 h1         1 62J       0.049033
     38 H15         18.5400    -9.6440    -0.4340 hc         1 62J       0.073700
     39 H16         19.8870   -11.0450     1.8620 hc         1 62J       0.051450
     40 H17         19.9590   -11.3550     0.1360 hc         1 62J       0.051450
     41 H18         18.6430   -13.1470     0.8720 hc         1 62J       0.044450
     42 H19         17.8980   -12.2510     2.1820 hc         1 62J       0.044450
     43 H20         17.2460   -11.7750    -0.7840 hc         1 62J       0.040700
     44 H21         15.6610   -10.1650    -0.1140 hc         1 62J       0.044450
     45 H22         15.5250   -10.7730     1.5230 hc         1 62J       0.044450
     46 H23         14.9330   -12.6220    -0.0980 h1         1 62J       0.056200
     47 H24         15.6860   -13.3830     1.2920 h1         1 62J       0.056200
     48 H25         18.9710   -14.4390     4.1760 h4         1 62J       0.149000
     49 H26         13.9780   -17.7950     2.4240 ha         1 62J       0.113000
@<TRIPOS>BOND
     1     1    14 1   
     2     1    18 1   
     3     1    25 1   
     4     1    26 1   
     5     2     3 1   
     6     2    19 1   
     7     2    27 1   
     8     3    20 1   
     9     3    28 1   
    10     3    29 1   
    11     4    20 ar  
    12     4    21 ar  
    13     4    30 1   
    14     5     7 1   
    15     5    21 1   
    16     5    22 2   
    17     6     7 2   
    18     6    23 1   
    19     6    31 1   
    20     7    32 1   
    21     8    21 ar  
    22     8    24 ar  
    23     8    33 1   
    24     9    20 ar  
    25     9    24 ar  
    26     9    34 1   
    27    10    11 2   
    28    11    12 1   
    29    11    14 1   
    30    12    13 1   
    31    13    35 1   
    32    13    36 1   
    33    13    37 1   
    34    14    15 1   
    35    14    38 1   
    36    15    16 1   
    37    15    39 1   
    38    15    40 1   
    39    16    17 1   
    40    16    41 1   
    41    16    42 1   
    42    17    18 1   
    43    17    19 1   
    44    17    43 1   
    45    18    44 1   
    46    18    45 1   
    47    19    46 1   
    48    19    47 1   
    49    22    23 1   
    50    22    48 1   
    51    24    49 1   
@<TRIPOS>SUBSTRUCTURE
     1 62J         1 TEMP              0 ****  ****    0 ROOT
