@<TRIPOS>MOLECULE
62K
   49    51     1     0     0
SMALL
abcg2


@<TRIPOS>ATOM
      1 N1          -0.6710     1.1780    -0.0810 n2         1 62K      -0.314400
      2 S1          -6.7260    -1.6920     0.1680 sy         1 62K       1.133600
      3 N2          -1.8770     1.6750    -0.0690 nu         1 62K      -0.626300
      4 N3          -7.2810    -1.6100    -1.3870 n8         1 62K      -1.004100
      5 N5           1.7180     3.7680    -0.0940 ns         1 62K      -0.391100
      6 CAA          8.1850    -1.5050     1.2630 c3         1 62K      -0.088100
      7 CAB          8.6300    -3.3880    -0.3380 c3         1 62K      -0.088100
      8 OAD          3.6840    -2.2150    -0.2530 o          1 62K      -0.493000
      9 OAF         -7.7250    -1.0040     0.9750 o          1 62K      -0.546500
     10 OAG         -6.3330    -3.0400     0.5580 o          1 62K      -0.546500
     11 CAH         -4.2450     1.4510    -0.0300 ca         1 62K      -0.174500
     12 CAI         -2.8720    -0.5410     0.0210 ca         1 62K      -0.174500
     13 CAJ         -5.3820     0.6740     0.0200 ca         1 62K       0.024500
     14 CAK         -4.0160    -1.3150     0.0740 ca         1 62K       0.024500
     15 CAL          4.4950     1.3210    -0.1330 ca         1 62K      -0.015000
     16 CAM          3.9130     2.5820    -0.1160 ca         1 62K      -0.164000
     17 CAN          2.3250     0.2480    -0.1330 ca         1 62K       0.016000
     18 CAO          6.3650    -2.3960    -0.2390 c3         1 62K       0.170600
     19 OAS          5.6480    -1.1590    -0.1510 os         1 62K      -0.449100
     20 CAU         -2.9820     0.8490    -0.0280 ca         1 62K       0.368000
     21 CAV          3.7190     0.1580    -0.1440 ca         1 62K      -0.175600
     22 CAW         -5.2660    -0.7110     0.0730 ca         1 62K      -0.310500
     23 CAX          0.3960     3.4320    -0.0910 c          1 62K       0.466700
     24 CAY          0.3600     1.9440    -0.0960 cc         1 62K       0.280900
     25 CAZ          2.5340     2.6510    -0.1060 ca         1 62K       0.089600
     26 CBA          1.7390     1.4950    -0.1110 ca         1 62K      -0.177900
     27 CBB          7.8470    -2.1000    -0.0990 c3         1 62K      -0.066700
     28 HN2         -2.0160     2.6820    -0.0760 hn         1 62K       0.527000
     29 HN3         -6.7360    -2.1770    -2.0290 hn         1 62K       0.472000
     30 HN3A        -8.2630    -1.8630    -1.4450 hn         1 62K       0.472000
     31 HN5          2.0500     4.7210    -0.0940 hn         1 62K       0.346500
     32 HAA          7.6560    -0.5700     1.4520 hc         1 62K       0.037533
     33 HAAA         7.9310    -2.2030     2.0640 hc         1 62K       0.037533
     34 HAAB         9.2540    -1.2960     1.3350 hc         1 62K       0.037533
     35 HAB          8.3850    -4.1440     0.4110 hc         1 62K       0.037533
     36 HABA         8.4220    -3.8130    -1.3220 hc         1 62K       0.037533
     37 HABB         9.7030    -3.2030    -0.2780 hc         1 62K       0.037533
     38 HAH         -4.3320     2.5290    -0.0660 ha         1 62K       0.134000
     39 HAI         -1.9020    -1.0150     0.0260 ha         1 62K       0.134000
     40 HAJ         -6.3510     1.1550     0.0210 ha         1 62K       0.139000
     41 HAK         -3.9210    -2.3910     0.1200 ha         1 62K       0.139000
     42 HAL          5.5730     1.2550    -0.1430 ha         1 62K       0.135000
     43 HAM          4.5270     3.4720    -0.1110 ha         1 62K       0.128000
     44 HAN          1.7130    -0.6440    -0.1420 ha         1 62K       0.151000
     45 HAO          6.0340    -3.0780     0.5490 h1         1 62K       0.051200
     46 HAOA         6.1540    -2.8650    -1.2040 h1         1 62K       0.051200
     47 HBB          8.1250    -1.3830    -0.8780 hc         1 62K       0.057700
     48 OAE         -0.5510     4.1990    -0.0840 o          1 62K      -0.545000
     49 CAT          4.3270    -1.1920    -0.1870 c          1 62K       0.613700
@<TRIPOS>BOND
     1     1     3 1   
     2     1    24 2   
     3     2     4 1   
     4     2     9 2   
     5     2    10 2   
     6     2    22 1   
     7     3    20 1   
     8     3    28 1   
     9     4    29 1   
    10     4    30 1   
    11     5    23 1   
    12     5    25 1   
    13     5    31 1   
    14     6    27 1   
    15     6    32 1   
    16     6    33 1   
    17     6    34 1   
    18     7    27 1   
    19     7    35 1   
    20     7    36 1   
    21     7    37 1   
    22     8    49 2   
    23    11    13 ar  
    24    11    20 ar  
    25    11    38 1   
    26    12    14 ar  
    27    12    20 ar  
    28    12    39 1   
    29    13    22 ar  
    30    13    40 1   
    31    14    22 ar  
    32    14    41 1   
    33    15    16 ar  
    34    15    21 ar  
    35    15    42 1   
    36    16    25 ar  
    37    16    43 1   
    38    17    21 ar  
    39    17    26 ar  
    40    17    44 1   
    41    18    19 1   
    42    18    27 1   
    43    18    45 1   
    44    18    46 1   
    45    19    49 1   
    46    21    49 1   
    47    23    24 1   
    48    23    48 2   
    49    24    26 1   
    50    25    26 ar  
    51    27    47 1   
@<TRIPOS>SUBSTRUCTURE
     1 62K         1 TEMP              0 ****  ****    0 ROOT
