@<TRIPOS>MOLECULE
62K
   49    51     1     0     0
SMALL
No Charge or Current Charge


@<TRIPOS>ATOM
      1 N1          -0.6860     1.1640    -0.0250 n2         1 62K      -0.314400
      2 S1          -7.0240    -1.5980     0.1000 sy         1 62K       1.133600
      3 N2          -1.9650     1.6600    -0.0050 nu         1 62K      -0.626300
      4 N3          -7.3910    -1.6850    -1.4900 n8         1 62K      -1.004100
      5 N5           1.7080     3.7590    -0.0760 ns         1 62K      -0.391100
      6 CAA          8.4370    -1.4010     1.0830 c3         1 62K      -0.088100
      7 CAB          8.7750    -3.4910    -0.3390 c3         1 62K      -0.088100
      8 OAD          3.7120    -2.2790    -0.0750 o          1 62K      -0.493000
      9 OAF         -8.1080    -0.8220     0.7020 o          1 62K      -0.546500
     10 OAG         -6.7340    -2.9820     0.4690 o          1 62K      -0.546500
     11 CAH         -4.3820     1.5170     0.0370 ca         1 62K      -0.174500
     12 CAI         -3.0780    -0.5280     0.0240 ca         1 62K      -0.174500
     13 CAJ         -5.5700     0.7660     0.0610 ca         1 62K       0.024500
     14 CAK         -4.2590    -1.2890     0.0480 ca         1 62K       0.024500
     15 CAL          4.5420     1.3030    -0.1140 ca         1 62K      -0.015000
     16 CAM          3.9480     2.5840    -0.1090 ca         1 62K      -0.164000
     17 CAN          2.3260     0.2370    -0.0720 ca         1 62K       0.016000
     18 CAO          6.4410    -2.4810    -0.1310 c3         1 62K       0.170600
     19 OAS          5.7400    -1.2240    -0.1320 os         1 62K      -0.449100
     20 CAU         -3.1320     0.8780     0.0190 ca         1 62K       0.368000
     21 CAV          3.7400     0.1240    -0.0950 ca         1 62K      -0.175600
     22 CAW         -5.5100    -0.6410     0.0660 ca         1 62K      -0.310500
     23 CAX          0.3690     3.4510    -0.0520 c          1 62K       0.466700
     24 CAY          0.3660     1.9450    -0.0460 cc         1 62K       0.280900
     25 CAZ          2.5550     2.6520    -0.0860 ca         1 62K       0.089600
     26 CBA          1.7630     1.5200    -0.0680 ca         1 62K      -0.177900
     27 CBB          7.9620    -2.1880    -0.1620 c3         1 62K      -0.066700
     28 HN2         -2.1410     2.6750    -0.0060 hn         1 62K       0.527000
     29 HN3         -6.4890    -1.5220    -1.9290 hn         1 62K       0.472000
     30 HN3A        -7.5380    -2.6860    -1.5980 hn         1 62K       0.472000
     31 HN5          2.0470     4.7140    -0.0860 hn         1 62K       0.346500
     32 HAA          7.9200    -0.4370     1.1620 hc         1 62K       0.037533
     33 HAAA         8.2450    -1.9690     2.0010 hc         1 62K       0.037533
     34 HAAB         9.5140    -1.1980     1.0250 hc         1 62K       0.037533
     35 HAB          8.6230    -4.1650     0.5120 hc         1 62K       0.037533
     36 HABA         8.4720    -4.0170    -1.2520 hc         1 62K       0.037533
     37 HABB         9.8470    -3.2710    -0.4160 hc         1 62K       0.037533
     38 HAH         -4.4410     2.6020     0.0320 ha         1 62K       0.134000
     39 HAI         -2.1200    -1.0380     0.0110 ha         1 62K       0.134000
     40 HAJ         -6.5300     1.2810     0.0740 ha         1 62K       0.139000
     41 HAK         -4.1920    -2.3770     0.0550 ha         1 62K       0.139000
     42 HAL          5.6280     1.2360    -0.1310 ha         1 62K       0.135000
     43 HAM          4.5550     3.4860    -0.1230 ha         1 62K       0.128000
     44 HAN          1.6870    -0.6440    -0.0570 ha         1 62K       0.151000
     45 HAO          6.1970    -3.0660     0.7660 h1         1 62K       0.051200
     46 HAOA         6.1650    -3.0730    -1.0140 h1         1 62K       0.051200
     47 HBB          8.1570    -1.5640    -1.0430 hc         1 62K       0.057700
     48 OAE         -0.5580     4.2550    -0.0400 o          1 62K      -0.545000
     49 CAT          4.3700    -1.2470    -0.1000 c          1 62K       0.613700
@<TRIPOS>BOND
     1     1     3 1   
     2     1    24 2   
     3     2     4 1   
     4     2     9 2   
     5     2    10 2   
     6     2    22 1   
     7     3    20 1   
     8     3    28 1   
     9     4    29 1   
    10     4    30 1   
    11     5    23 1   
    12     5    25 1   
    13     5    31 1   
    14     6    27 1   
    15     6    32 1   
    16     6    33 1   
    17     6    34 1   
    18     7    27 1   
    19     7    35 1   
    20     7    36 1   
    21     7    37 1   
    22     8    49 2   
    23    11    13 ar  
    24    11    20 ar  
    25    11    38 1   
    26    12    14 ar  
    27    12    20 ar  
    28    12    39 1   
    29    13    22 ar  
    30    13    40 1   
    31    14    22 ar  
    32    14    41 1   
    33    15    16 ar  
    34    15    21 ar  
    35    15    42 1   
    36    16    25 ar  
    37    16    43 1   
    38    17    21 ar  
    39    17    26 ar  
    40    17    44 1   
    41    18    19 1   
    42    18    27 1   
    43    18    45 1   
    44    18    46 1   
    45    19    49 1   
    46    21    49 1   
    47    23    24 1   
    48    23    48 2   
    49    24    26 1   
    50    25    26 ar  
    51    27    47 1   
@<TRIPOS>SUBSTRUCTURE
     1 62K         1 TEMP              0 ****  ****    0 ROOT
