@<TRIPOS>MOLECULE
62L
   38    39     1     0     0
SMALL
No Charge or Current Charge


@<TRIPOS>ATOM
      1 C01         -2.9090    -1.1520     0.3410 ca         1 62L      -0.015000
      2 C02         -2.6080    -2.5170     0.3750 ca         1 62L      -0.168000
      3 C03         -1.2950    -2.9390     0.6060 ca         1 62L      -0.038000
      4 C04         -0.2620    -1.9980     0.7770 ca         1 62L      -0.112300
      5 C05         -0.5520    -0.6040     0.6930 ca         1 62L       0.441000
      6 C06         -1.8940    -0.1880     0.5200 ca         1 62L      -0.282500
      7 S07         -2.4130     1.5410     0.5060 sy         1 62L       1.087500
      8 N08          0.4800     0.3340     0.8050 nu         1 62L      -0.968000
      9 C09          1.7800     0.3890     0.2910 ca         1 62L       0.271000
     10 C10          2.1260    -0.0670    -1.0030 ca         1 62L      -0.139600
     11 C11          2.7730     0.9430     1.1180 ca         1 62L      -0.128000
     12 C12          4.1130     1.0160     0.6970 ca         1 62L      -0.108300
     13 C13          4.4600     0.5320    -0.5750 ca         1 62L      -0.139000
     14 C14          3.4730    -0.0010    -1.4190 ca         1 62L      -0.084000
     15 C15          1.1020    -0.5890    -1.9700 c          1 62L       0.714600
     16 O16          1.2730    -1.7090    -2.4320 o          1 62L      -0.710500
     17 O17          0.2520     0.1860    -2.3890 o          1 62L      -0.710500
     18 O18         -1.2880     2.4280     0.8340 o          1 62L      -0.522000
     19 C19          5.1770     1.6010     1.6140 c3         1 62L      -0.029800
     20 C20          1.1350    -2.5370     1.0990 c3         1 62L      -0.037800
     21 O21         -3.2310     1.7680    -0.6920 o          1 62L      -0.522000
     22 C22         -3.5520     1.6380     1.8930 c3         1 62L      -0.362100
     23 H1          -3.9410    -0.8450     0.1800 ha         1 62L       0.108000
     24 H2          -3.3990    -3.2510     0.2410 ha         1 62L       0.100000
     25 H3          -1.0800    -4.0040     0.6580 ha         1 62L       0.096000
     26 H4           0.1460     1.2510     1.1070 hn         1 62L       0.494000
     27 H5           2.5040     1.3020     2.1080 ha         1 62L       0.097000
     28 H6           5.4920     0.5760    -0.9150 ha         1 62L       0.088000
     29 H7           3.7510    -0.3540    -2.4110 ha         1 62L       0.124000
     30 H9           5.5940     0.8280     2.2700 hc         1 62L       0.024700
     31 H10          6.0040     2.0370     1.0420 hc         1 62L       0.024700
     32 H11          4.7630     2.3930     2.2500 hc         1 62L       0.024700
     33 H12          1.7730    -2.5610     0.2090 hc         1 62L       0.040367
     34 H13          1.6370    -1.9330     1.8630 hc         1 62L       0.040367
     35 H14          1.0900    -3.5610     1.4900 hc         1 62L       0.040367
     36 H15         -3.0110     1.3500     2.8020 h1         1 62L       0.088033
     37 H16         -3.9080     2.6710     1.9700 h1         1 62L       0.088033
     38 H17         -4.3890     0.9570     1.7100 h1         1 62L       0.088033
@<TRIPOS>BOND
     1     1     2 ar  
     2     1     6 ar  
     3     1    23 1   
     4     2     3 ar  
     5     2    24 1   
     6     3     4 ar  
     7     3    25 1   
     8     4     5 ar  
     9     4    20 1   
    10     5     6 ar  
    11     5     8 1   
    12     6     7 1   
    13     7    18 2   
    14     7    21 2   
    15     7    22 1   
    16     8     9 1   
    17     8    26 1   
    18     9    10 ar  
    19     9    11 ar  
    20    10    14 ar  
    21    10    15 1   
    22    11    12 ar  
    23    11    27 1   
    24    12    13 ar  
    25    12    19 1   
    26    13    14 ar  
    27    13    28 1   
    28    14    29 1   
    29    15    16 1   
    30    15    17 1   
    31    19    30 1   
    32    19    31 1   
    33    19    32 1   
    34    20    33 1   
    35    20    34 1   
    36    20    35 1   
    37    22    36 1   
    38    22    37 1   
    39    22    38 1   
@<TRIPOS>SUBSTRUCTURE
     1 62L         1 TEMP              0 ****  ****    0 ROOT
