@<TRIPOS>MOLECULE
62L
   38    39     1     0     0
SMALL
abcg2


@<TRIPOS>ATOM
      1 C01         -2.7620    -1.2320     0.2430 ca         1 62L      -0.015000
      2 C02         -2.3980    -2.5580     0.3340 ca         1 62L      -0.168000
      3 C03         -1.0870    -2.8700     0.6720 ca         1 62L      -0.038000
      4 C04         -0.1310    -1.8980     0.9150 ca         1 62L      -0.112300
      5 C05         -0.4840    -0.5340     0.7950 ca         1 62L       0.441000
      6 C06         -1.8190    -0.2340     0.4750 ca         1 62L      -0.282500
      7 S07         -2.4480     1.4150     0.2690 sy         1 62L       1.087500
      8 N08          0.4560     0.4430     1.0570 nu         1 62L      -0.968000
      9 C09          1.7260     0.4450     0.4250 ca         1 62L       0.271000
     10 C10          1.9120     0.0580    -0.9040 ca         1 62L      -0.139600
     11 C11          2.8150     0.8370     1.2010 ca         1 62L      -0.128000
     12 C12          4.1070     0.8560     0.6940 ca         1 62L      -0.108300
     13 C13          4.2980     0.4240    -0.6170 ca         1 62L      -0.139000
     14 C14          3.2200     0.0200    -1.3870 ca         1 62L      -0.084000
     15 C15          0.7730    -0.2260    -1.8730 c          1 62L       0.714600
     16 O16          0.9220    -1.2000    -2.6330 o          1 62L      -0.710500
     17 O17         -0.1750     0.5820    -1.8570 o          1 62L      -0.710500
     18 O18         -1.3950     2.4250     0.4250 o          1 62L      -0.522000
     19 C19          5.2680     1.2700     1.5510 c3         1 62L      -0.029800
     20 C20          1.2390    -2.3200     1.3610 c3         1 62L      -0.037800
     21 O21         -3.2560     1.4600    -0.9490 o          1 62L      -0.522000
     22 C22         -3.5450     1.6080     1.6590 c3         1 62L      -0.362100
     23 H1          -3.7800    -0.9760    -0.0200 ha         1 62L       0.108000
     24 H2          -3.1240    -3.3390     0.1580 ha         1 62L       0.100000
     25 H3          -0.8010    -3.9100     0.7760 ha         1 62L       0.096000
     26 H4           0.0660     1.3740     1.1210 hn         1 62L       0.494000
     27 H5           2.6380     1.1170     2.2340 ha         1 62L       0.097000
     28 H6           5.2960     0.4060    -1.0390 ha         1 62L       0.088000
     29 H7           3.3910    -0.3050    -2.4060 ha         1 62L       0.124000
     30 H9           5.7910     0.3990     1.9500 hc         1 62L       0.024700
     31 H10          5.9980     1.8490     0.9840 hc         1 62L       0.024700
     32 H11          4.9460     1.8720     2.4000 hc         1 62L       0.024700
     33 H12          1.9860    -2.2070     0.5760 hc         1 62L       0.040367
     34 H13          1.5800    -1.7310     2.2140 hc         1 62L       0.040367
     35 H14          1.2280    -3.3670     1.6610 hc         1 62L       0.040367
     36 H15         -2.9710     1.5260     2.5800 h1         1 62L       0.088033
     37 H16         -3.9870     2.6020     1.5840 h1         1 62L       0.088033
     38 H17         -4.3260     0.8520     1.6360 h1         1 62L       0.088033
@<TRIPOS>BOND
     1     1     2 ar  
     2     1     6 ar  
     3     1    23 1   
     4     2     3 ar  
     5     2    24 1   
     6     3     4 ar  
     7     3    25 1   
     8     4     5 ar  
     9     4    20 1   
    10     5     6 ar  
    11     5     8 1   
    12     6     7 1   
    13     7    18 2   
    14     7    21 2   
    15     7    22 1   
    16     8     9 1   
    17     8    26 1   
    18     9    10 ar  
    19     9    11 ar  
    20    10    14 ar  
    21    10    15 1   
    22    11    12 ar  
    23    11    27 1   
    24    12    13 ar  
    25    12    19 1   
    26    13    14 ar  
    27    13    28 1   
    28    14    29 1   
    29    15    16 1   
    30    15    17 1   
    31    19    30 1   
    32    19    31 1   
    33    19    32 1   
    34    20    33 1   
    35    20    34 1   
    36    20    35 1   
    37    22    36 1   
    38    22    37 1   
    39    22    38 1   
@<TRIPOS>SUBSTRUCTURE
     1 62L         1 TEMP              0 ****  ****    0 ROOT
