@<TRIPOS>MOLECULE
62M
   47    50     1     0     0
SMALL
abcg2


@<TRIPOS>ATOM
      1 C2           3.9100    -2.1590     0.3700 c5         1 62M       0.151300
      2 C4           2.7930    -2.5540    -0.5810 c5         1 62M      -0.097400
      3 C5           1.8070    -1.3880    -0.5180 c5         1 62M       0.099000
      4 C7           3.1490    -1.4250     1.4730 c5         1 62M       0.050000
      5 O9           2.3700     1.1100     2.0540 o          1 62M      -0.658100
      6 C11         -0.1780     0.8310    -0.4400 ca         1 62M       0.047000
      7 C12         -1.0560     1.6500    -1.1430 ca         1 62M      -0.287900
      8 C15          1.0110     2.8160     0.3160 ca         1 62M       0.239100
      9 C19         -2.2150     1.4550    -1.9590 cc         1 62M       0.381900
     10 C21         -2.7860    -0.8930    -1.3210 ca         1 62M      -0.080300
     11 C23         -1.9920    -3.0150    -0.5000 ca         1 62M      -0.114000
     12 C24         -2.6200    -2.7890     0.7150 ca         1 62M      -0.109000
     13 C27         -3.4200    -0.6860    -0.0990 ca         1 62M      -0.098000
     14 O1           4.6150    -3.2880     0.8100 oh         1 62M      -0.646000
     15 N6           2.1410    -0.6820     0.7280 n          1 62M      -0.386800
     16 C10          0.8760     1.3850     0.2640 ca         1 62M      -0.283600
     17 C13         -0.8710     3.0430    -1.1130 ca         1 62M       0.032800
     18 C14          0.1570     3.6440    -0.3870 ca         1 62M      -0.221000
     19 N17         -1.8650     3.5590    -1.8610 na         1 62M      -0.068400
     20 N18         -2.6750     2.6080    -2.3620 nd         1 62M      -0.526100
     21 C20         -2.8360     0.1650    -2.3920 c3         1 62M      -0.042400
     22 C22         -2.0750    -2.0720    -1.5170 ca         1 62M      -0.121000
     23 C25         -3.3470    -1.6180     0.9310 ca         1 62M      -0.070300
     24 C26         -4.0070    -1.3560     2.2540 c3         1 62M      -0.048800
     25 H1           4.5770    -1.4420    -0.1270 h1         1 62M       0.041700
     26 H2           3.1360    -2.7420    -1.5980 hc         1 62M       0.067700
     27 H3           2.3200    -3.4670    -0.2110 hc         1 62M       0.067700
     28 H4           1.9080    -0.7140    -1.3700 h1         1 62M       0.057700
     29 H5           0.7860    -1.7670    -0.5080 h1         1 62M       0.057700
     30 H6           2.6770    -2.1450     2.1500 h1         1 62M       0.072700
     31 H7           3.7770    -0.7590     2.0600 h1         1 62M       0.072700
     32 H8          -0.3540    -0.2320    -0.4260 ha         1 62M       0.128000
     33 H9          -1.4340    -3.9300    -0.6590 ha         1 62M       0.112000
     34 H10         -2.5470    -3.5290     1.5030 ha         1 62M       0.113000
     35 H11         -3.9810     0.2310     0.0560 ha         1 62M       0.119000
     36 H12          5.4000    -2.9940     1.2820 ho         1 62M       0.451000
     37 H13          0.2760     4.7180    -0.3380 ha         1 62M       0.139000
     38 H14          2.3370     2.6850     1.6330 ho         1 62M       0.521000
     39 H15         -2.0660     4.5280    -2.0410 hn         1 62M       0.379000
     40 H16         -3.8670     0.3580    -2.6970 hc         1 62M       0.067700
     41 H17         -2.3160    -0.2000    -3.2820 hc         1 62M       0.067700
     42 H18         -1.5760    -2.2490    -2.4630 ha         1 62M       0.110000
     43 H19         -3.3140    -0.8710     2.9440 hc         1 62M       0.044367
     44 H20         -4.8710    -0.7000     2.1490 hc         1 62M       0.044367
     45 H21         -4.3400    -2.2790     2.7270 hc         1 62M       0.044367
     46 C8           1.8350     0.5790     1.0640 c          1 62M       0.636700
     47 O16          1.9720     3.3910     1.0440 oh         1 62M      -0.557100
@<TRIPOS>BOND
     1     1     2 1   
     2     1     4 1   
     3     1    14 1   
     4     1    25 1   
     5     2     3 1   
     6     2    26 1   
     7     2    27 1   
     8     3    15 1   
     9     3    28 1   
    10     3    29 1   
    11     4    15 1   
    12     4    30 1   
    13     4    31 1   
    14     5    46 2   
    15     6     7 ar  
    16     6    16 ar  
    17     6    32 1   
    18     7     9 1   
    19     7    17 ar  
    20     8    16 ar  
    21     8    18 ar  
    22     8    47 1   
    23     9    20 2   
    24     9    21 1   
    25    10    13 ar  
    26    10    21 1   
    27    10    22 ar  
    28    11    12 ar  
    29    11    22 ar  
    30    11    33 1   
    31    12    23 ar  
    32    12    34 1   
    33    13    23 ar  
    34    13    35 1   
    35    14    36 1   
    36    15    46 1   
    37    16    46 1   
    38    17    18 ar  
    39    17    19 1   
    40    18    37 1   
    41    19    20 1   
    42    19    39 1   
    43    21    40 1   
    44    21    41 1   
    45    22    42 1   
    46    23    24 1   
    47    24    43 1   
    48    24    44 1   
    49    24    45 1   
    50    38    47 1   
@<TRIPOS>SUBSTRUCTURE
     1 62M         1 TEMP              0 ****  ****    0 ROOT
