@<TRIPOS>MOLECULE
62M
   47    50     1     0     0
SMALL
No Charge or Current Charge


@<TRIPOS>ATOM
      1 C2           3.5060    -2.5380     0.4510 c5         1 62M       0.151300
      2 C4           2.5320    -2.4210    -0.7460 c5         1 62M      -0.097400
      3 C5           2.4000    -0.8870    -0.8690 c5         1 62M       0.099000
      4 C7           2.9500    -1.4580     1.4330 c5         1 62M       0.050000
      5 O9           2.4540     1.2690     1.9510 o          1 62M      -0.658100
      6 C11         -0.1610     0.9460    -0.5000 ca         1 62M       0.047000
      7 C12         -1.1000     1.7440    -1.1670 ca         1 62M      -0.287900
      8 C15          0.8980     3.0100     0.2720 ca         1 62M       0.239100
      9 C19         -2.2640     1.4180    -1.9640 cc         1 62M       0.381900
     10 C21         -2.6230    -1.0030    -1.2360 ca         1 62M      -0.080300
     11 C23         -1.7410    -3.1120    -0.3880 ca         1 62M      -0.114000
     12 C24         -2.3640    -2.8800     0.8490 ca         1 62M      -0.109000
     13 C27         -3.2520    -0.7790     0.0050 ca         1 62M      -0.098000
     14 O1           3.4990    -3.8530     1.0070 oh         1 62M      -0.646000
     15 N6           2.1920    -0.5310     0.5520 n          1 62M      -0.386800
     16 C10          0.8820     1.5920     0.2110 ca         1 62M      -0.283600
     17 C13         -1.0500     3.0970    -1.1220 ca         1 62M       0.032800
     18 C14         -0.0660     3.7790    -0.4050 ca         1 62M      -0.221000
     19 N17         -2.1200     3.5690    -1.8470 na         1 62M      -0.068400
     20 N18         -2.8930     2.5290    -2.3840 nd         1 62M      -0.526100
     21 C20         -2.7330     0.0350    -2.3490 c3         1 62M      -0.042400
     22 C22         -1.8710    -2.1780    -1.4290 ca         1 62M      -0.121000
     23 C25         -3.1260    -1.7140     1.0500 ca         1 62M      -0.070300
     24 C26         -3.7970    -1.4570     2.3910 c3         1 62M      -0.048800
     25 H1           4.5210    -2.2640     0.1290 h1         1 62M       0.041700
     26 H2           2.9260    -2.8820    -1.6570 hc         1 62M       0.067700
     27 H3           1.5630    -2.8860    -0.5290 hc         1 62M       0.067700
     28 H4           3.3210    -0.4290    -1.2560 h1         1 62M       0.057700
     29 H5           1.5760    -0.6070    -1.5350 h1         1 62M       0.057700
     30 H6           2.2800    -1.9010     2.1810 h1         1 62M       0.072700
     31 H7           3.7670    -0.9490     1.9640 h1         1 62M       0.072700
     32 H8          -0.2500    -0.1360    -0.5070 ha         1 62M       0.128000
     33 H9          -1.1530    -4.0150    -0.5390 ha         1 62M       0.112000
     34 H10         -2.2550    -3.6070     1.6510 ha         1 62M       0.113000
     35 H11         -3.8310     0.1280     0.1610 ha         1 62M       0.119000
     36 H12          4.1970    -3.8760     1.7000 ho         1 62M       0.451000
     37 H13         -0.0500     4.8640    -0.3580 ha         1 62M       0.139000
     38 H14          2.2820     2.9340     1.5420 ho         1 62M       0.521000
     39 H15         -2.3570     4.5480    -1.9990 hn         1 62M       0.379000
     40 H16         -3.7760     0.0890    -2.6820 hc         1 62M       0.067700
     41 H17         -2.1610    -0.2860    -3.2260 hc         1 62M       0.067700
     42 H18         -1.3770    -2.3650    -2.3800 ha         1 62M       0.110000
     43 H19         -3.1470    -0.8620     3.0440 hc         1 62M       0.044367
     44 H20         -4.7390    -0.9100     2.2670 hc         1 62M       0.044367
     45 H21         -4.0270    -2.3940     2.9100 hc         1 62M       0.044367
     46 C8           1.9160     0.7900     0.9580 c          1 62M       0.636700
     47 O16          1.8450     3.6490     1.0080 oh         1 62M      -0.557100
@<TRIPOS>BOND
     1     1     2 1   
     2     1     4 1   
     3     1    14 1   
     4     1    25 1   
     5     2     3 1   
     6     2    26 1   
     7     2    27 1   
     8     3    15 1   
     9     3    28 1   
    10     3    29 1   
    11     4    15 1   
    12     4    30 1   
    13     4    31 1   
    14     5    46 2   
    15     6     7 ar  
    16     6    16 ar  
    17     6    32 1   
    18     7     9 1   
    19     7    17 ar  
    20     8    16 ar  
    21     8    18 ar  
    22     8    47 1   
    23     9    20 2   
    24     9    21 1   
    25    10    13 ar  
    26    10    21 1   
    27    10    22 ar  
    28    11    12 ar  
    29    11    22 ar  
    30    11    33 1   
    31    12    23 ar  
    32    12    34 1   
    33    13    23 ar  
    34    13    35 1   
    35    14    36 1   
    36    15    46 1   
    37    16    46 1   
    38    17    18 ar  
    39    17    19 1   
    40    18    37 1   
    41    19    20 1   
    42    19    39 1   
    43    21    40 1   
    44    21    41 1   
    45    22    42 1   
    46    23    24 1   
    47    24    43 1   
    48    24    44 1   
    49    24    45 1   
    50    38    47 1   
@<TRIPOS>SUBSTRUCTURE
     1 62M         1 TEMP              0 ****  ****    0 ROOT
