@<TRIPOS>MOLECULE
62N
   44    45     1     0     0
SMALL
No Charge or Current Charge


@<TRIPOS>ATOM
      1 C1           3.2230     0.3890    -0.5330 c6         1 62N       0.309700
      2 F1          -6.9810    -0.4370     2.0670 f          1 62N      -0.110333
      3 N1           1.7660     0.4210    -0.4650 ns         1 62N      -0.519900
      4 C2           3.8580     1.6970     0.0490 c6         1 62N       0.099300
      5 F2          -7.7170     0.3210     0.1680 f          1 62N      -0.110333
      6 N2          -0.3640    -0.2490    -0.8670 ns         1 62N      -0.492500
      7 O2           3.5100     2.8730    -0.7220 oh         1 62N      -0.713000
      8 C3           5.4040     1.5340     0.0850 c6         1 62N       0.139300
      9 F3          -6.7510     1.6660     1.5680 f          1 62N      -0.110333
     10 O3           6.0120     2.7080     0.6490 oh         1 62N      -0.665000
     11 C4           5.7990     0.2620     0.8900 c6         1 62N       0.142300
     12 O4           7.2310     0.1080     0.8810 oh         1 62N      -0.714000
     13 C5           5.0630    -0.9760     0.2860 c6         1 62N       0.179300
     14 O5           3.6300    -0.7350     0.2710 os         1 62N      -0.461000
     15 C6           5.3380    -2.2850     1.1000 c3         1 62N       0.172600
     16 O6           4.6320    -3.4370     0.5910 oh         1 62N      -0.705000
     17 C7           0.9450    -0.3620    -1.2280 c          1 62N       0.668100
     18 O7           1.3570    -1.0630    -2.1360 o          1 62N      -0.544100
     19 C8          -1.4780    -0.8600    -1.3880 c          1 62N       0.627700
     20 O8          -1.4150    -1.6440    -2.3250 o          1 62N      -0.506100
     21 C9          -2.8060    -0.5110    -0.7380 ca         1 62N      -0.132600
     22 C10         -3.9930    -1.1000    -1.2300 ca         1 62N      -0.079000
     23 C11         -5.2420    -0.8030    -0.6570 ca         1 62N      -0.068500
     24 C12         -5.3400     0.0980     0.4230 ca         1 62N      -0.175300
     25 C13         -4.1600     0.6810     0.9260 ca         1 62N      -0.068500
     26 C14         -2.9100     0.3860     0.3550 ca         1 62N      -0.079000
     27 C15         -6.7010     0.4140     1.0560 c3         1 62N       0.356300
     28 H1           3.5430     0.2450    -1.5770 h2         1 62N       0.091700
     29 HN1          1.3450     0.9350     0.2950 hn         1 62N       0.307500
     30 H2           3.5010     1.8140     1.0840 h1         1 62N       0.049700
     31 HN2         -0.5440     0.3740    -0.1000 hn         1 62N       0.314500
     32 HO2          2.5280     2.8870    -0.8180 ho         1 62N       0.514000
     33 H3           5.7500     1.4020    -0.9530 h1         1 62N       0.059700
     34 HO3          5.4710     3.4560     0.3030 ho         1 62N       0.466000
     35 H4           5.4490     0.3910     1.9260 h1         1 62N       0.051700
     36 HO4          7.5840     1.0250     0.9890 ho         1 62N       0.526000
     37 H5           5.4080    -1.1380    -0.7460 h1         1 62N       0.068700
     38 H6           6.4190    -2.4770     1.0870 h1         1 62N       0.035200
     39 H6A          5.0530    -2.1020     2.1450 h1         1 62N       0.035200
     40 HO6          4.8180    -4.1830     1.2070 ho         1 62N       0.504000
     41 H10         -3.9560    -1.7970    -2.0650 ha         1 62N       0.132000
     42 H11         -6.1330    -1.2810    -1.0590 ha         1 62N       0.136000
     43 H13         -4.2040     1.3690     1.7690 ha         1 62N       0.136000
     44 H14         -2.0330     0.8660     0.7820 ha         1 62N       0.132000
@<TRIPOS>BOND
     1     1     3 1   
     2     1     4 1   
     3     1    14 1   
     4     1    28 1   
     5     2    27 1   
     6     3    17 1   
     7     3    29 1   
     8     4     7 1   
     9     4     8 1   
    10     4    30 1   
    11     5    27 1   
    12     6    17 1   
    13     6    19 1   
    14     6    31 1   
    15     7    32 1   
    16     8    10 1   
    17     8    11 1   
    18     8    33 1   
    19     9    27 1   
    20    10    34 1   
    21    11    12 1   
    22    11    13 1   
    23    11    35 1   
    24    12    36 1   
    25    13    14 1   
    26    13    15 1   
    27    13    37 1   
    28    15    16 1   
    29    15    38 1   
    30    15    39 1   
    31    16    40 1   
    32    17    18 2   
    33    19    20 2   
    34    19    21 1   
    35    21    22 ar  
    36    21    26 ar  
    37    22    23 ar  
    38    22    41 1   
    39    23    24 ar  
    40    23    42 1   
    41    24    25 ar  
    42    24    27 1   
    43    25    26 ar  
    44    25    43 1   
    45    26    44 1   
@<TRIPOS>SUBSTRUCTURE
     1 62N         1 TEMP              0 ****  ****    0 ROOT
