@<TRIPOS>MOLECULE
62N
   44    45     1     0     0
SMALL
abcg2


@<TRIPOS>ATOM
      1 C1           3.1600     0.2740    -0.2690 c6         1 62N       0.309700
      2 F1          -7.0050    -0.1140     1.9010 f          1 62N      -0.110333
      3 N1           1.7470     0.2590    -0.0880 ns         1 62N      -0.519900
      4 C2           3.7560     1.5610     0.3080 c6         1 62N       0.099300
      5 F2          -7.6930     0.1590    -0.1170 f          1 62N      -0.110333
      6 N2          -0.4260    -0.2510    -0.5760 ns         1 62N      -0.492500
      7 O2           3.3030     2.6940    -0.3880 oh         1 62N      -0.713000
      8 C3           5.2710     1.5100     0.1700 c6         1 62N       0.139300
      9 F3          -6.9190     1.8340     0.9900 f          1 62N      -0.110333
     10 O3           5.8980     2.5910     0.8160 oh         1 62N      -0.665000
     11 C4           5.8260     0.2280     0.7800 c6         1 62N       0.142300
     12 O4           7.2010     0.0940     0.5200 oh         1 62N      -0.714000
     13 C5           5.1040    -0.9800     0.1830 c6         1 62N       0.179300
     14 O5           3.7120    -0.8460     0.3810 os         1 62N      -0.461000
     15 C6           5.5440    -2.2760     0.8300 c3         1 62N       0.172600
     16 O6           4.9030    -3.3480     0.1810 oh         1 62N      -0.705000
     17 C7           0.9060    -0.3180    -0.9880 c          1 62N       0.668100
     18 O7           1.2580    -0.7980    -2.0400 o          1 62N      -0.544100
     19 C8          -1.4940    -0.8430    -1.2040 c          1 62N       0.627700
     20 O8          -1.4000    -1.6330    -2.1140 o          1 62N      -0.506100
     21 C9          -2.8290    -0.4480    -0.6560 ca         1 62N      -0.132600
     22 C10         -3.8720    -1.3660    -0.7610 ca         1 62N      -0.079000
     23 C11         -5.1350    -1.0430    -0.3020 ca         1 62N      -0.068500
     24 C12         -5.3730     0.2130     0.2470 ca         1 62N      -0.175300
     25 C13         -4.3450     1.1380     0.3420 ca         1 62N      -0.068500
     26 C14         -3.0750     0.8050    -0.1060 ca         1 62N      -0.079000
     27 C15         -6.7470     0.5310     0.7540 c3         1 62N       0.356300
     28 H1           3.3720     0.2360    -1.3440 h2         1 62N       0.091700
     29 HN1          1.4000     0.4950     0.8310 hn         1 62N       0.307500
     30 H2           3.5010     1.6170     1.3780 h1         1 62N       0.049700
     31 HN2         -0.6230     0.2570     0.2730 hn         1 62N       0.314500
     32 HO2          2.3820     2.8530    -0.1620 ho         1 62N       0.514000
     33 H3           5.5150     1.5050    -0.9050 h1         1 62N       0.059700
     34 HO3          5.7210     3.3930     0.3150 ho         1 62N       0.466000
     35 H4           5.6280     0.2460     1.8640 h1         1 62N       0.051700
     36 HO4          7.6490     0.8710     0.8720 ho         1 62N       0.526000
     37 H5           5.3280    -1.0270    -0.8960 h1         1 62N       0.068700
     38 H6           6.6330    -2.3480     0.7510 h1         1 62N       0.035200
     39 H6A          5.3000    -2.2400     1.9010 h1         1 62N       0.035200
     40 HO6          5.2570    -4.1660     0.5410 ho         1 62N       0.504000
     41 H10         -3.6970    -2.3400    -1.1950 ha         1 62N       0.132000
     42 H11         -5.9260    -1.7760    -0.3830 ha         1 62N       0.136000
     43 H13         -4.5120     2.1240     0.7530 ha         1 62N       0.136000
     44 H14         -2.2970     1.5550    -0.0450 ha         1 62N       0.132000
@<TRIPOS>BOND
     1     1     3 1   
     2     1     4 1   
     3     1    14 1   
     4     1    28 1   
     5     2    27 1   
     6     3    17 1   
     7     3    29 1   
     8     4     7 1   
     9     4     8 1   
    10     4    30 1   
    11     5    27 1   
    12     6    17 1   
    13     6    19 1   
    14     6    31 1   
    15     7    32 1   
    16     8    10 1   
    17     8    11 1   
    18     8    33 1   
    19     9    27 1   
    20    10    34 1   
    21    11    12 1   
    22    11    13 1   
    23    11    35 1   
    24    12    36 1   
    25    13    14 1   
    26    13    15 1   
    27    13    37 1   
    28    15    16 1   
    29    15    38 1   
    30    15    39 1   
    31    16    40 1   
    32    17    18 2   
    33    19    20 2   
    34    19    21 1   
    35    21    22 ar  
    36    21    26 ar  
    37    22    23 ar  
    38    22    41 1   
    39    23    24 ar  
    40    23    42 1   
    41    24    25 ar  
    42    24    27 1   
    43    25    26 ar  
    44    25    43 1   
    45    26    44 1   
@<TRIPOS>SUBSTRUCTURE
     1 62N         1 TEMP              0 ****  ****    0 ROOT
