@<TRIPOS>MOLECULE
62O
   26    28     1     0     0
SMALL
abcg2


@<TRIPOS>ATOM
      1 C1           0.7900     0.4470     0.0040 ca         1 62O      -0.035200
      2 C2           0.6500    -0.9510     0.0240 ca         1 62O       0.035400
      3 C7          -1.3250    -0.1600     0.0240 cc         1 62O       0.479400
      4 C8           3.1480     0.2740    -0.0020 ca         1 62O       0.163100
      5 C9           3.0310    -1.1290     0.0180 ca         1 62O      -0.211000
      6 C10         -2.7680    -0.0700     0.0320 cc         1 62O      -0.181900
      7 C12         -3.6990    -1.0900     0.0260 cd         1 62O      -0.164000
      8 C14          5.5250     0.1610    -0.0010 c3         1 62O       0.149900
      9 C15         -4.9350    -0.4330     0.0400 cd         1 62O       0.230900
     10 N3          -0.4920     0.9220     0.0020 na         1 62O      -0.321600
     11 C4           2.0190     1.0870    -0.0090 ca         1 62O      -0.168000
     12 N5          -0.6790    -1.2940     0.0360 nd         1 62O      -0.543100
     13 C6           1.7920    -1.7460     0.0310 ca         1 62O      -0.007000
     14 O11          4.3330     0.9190    -0.0130 os         1 62O      -0.344100
     15 N13         -3.4770     1.0790     0.0470 na         1 62O      -0.005200
     16 N16         -4.7850     0.8800     0.0520 nc         1 62O      -0.507800
     17 H1           3.9140    -1.7540     0.0250 ha         1 62O       0.120000
     18 H2          -3.5020    -2.1480     0.0140 ha         1 62O       0.163000
     19 H3           6.3450     0.8740    -0.0110 h1         1 62O       0.041700
     20 H4           5.6090    -0.4560     0.8980 h1         1 62O       0.041700
     21 H5           5.6110    -0.4840    -0.8790 h1         1 62O       0.041700
     22 H6          -5.9220    -0.8690     0.0400 h4         1 62O       0.041100
     23 H7          -0.7520     1.8960    -0.0060 hn         1 62O       0.353000
     24 H8           2.1100     2.1650    -0.0240 ha         1 62O       0.132000
     25 H10          1.7200    -2.8250     0.0460 ha         1 62O       0.131000
     26 H11         -3.1320     2.0270     0.0570 hn         1 62O       0.366000
@<TRIPOS>BOND
     1     1     2 ar  
     2     1    10 1   
     3     1    11 ar  
     4     2    12 1   
     5     2    13 ar  
     6     3     6 1   
     7     3    10 1   
     8     3    12 2   
     9     4     5 ar  
    10     4    11 ar  
    11     4    14 1   
    12     5    13 ar  
    13     5    17 1   
    14     6     7 2   
    15     6    15 1   
    16     7     9 1   
    17     7    18 1   
    18     8    14 1   
    19     8    19 1   
    20     8    20 1   
    21     8    21 1   
    22     9    16 2   
    23     9    22 1   
    24    10    23 1   
    25    11    24 1   
    26    13    25 1   
    27    15    16 1   
    28    15    26 1   
@<TRIPOS>SUBSTRUCTURE
     1 62O         1 TEMP              0 ****  ****    0 ROOT
