@<TRIPOS>MOLECULE
62O
   26    28     1     0     0
SMALL
No Charge or Current Charge


@<TRIPOS>ATOM
      1 C1           0.7610     0.3780     0.0140 ca         1 62O      -0.035200
      2 C2           0.6540    -0.9820     0.0230 ca         1 62O       0.035400
      3 C7          -1.3650    -0.2230     0.0260 cc         1 62O       0.479400
      4 C8           3.1630     0.2650     0.0050 ca         1 62O       0.163100
      5 C9           3.0670    -1.1550     0.0150 ca         1 62O      -0.211000
      6 C10         -2.7950    -0.0580     0.0300 cc         1 62O      -0.181900
      7 C12         -3.7420    -1.0410     0.0400 cd         1 62O      -0.164000
      8 C14          5.6300     0.2240    -0.0040 c3         1 62O       0.149900
      9 C15         -4.9960    -0.3930     0.0410 cd         1 62O       0.230900
     10 N3          -0.5050     0.8730     0.0150 na         1 62O      -0.321600
     11 C4           1.9900     1.0460     0.0050 ca         1 62O      -0.168000
     12 N5          -0.6790    -1.3840     0.0310 nd         1 62O      -0.543100
     13 C6           1.8020    -1.7870     0.0240 ca         1 62O      -0.007000
     14 O11          4.3740     0.9250    -0.0040 os         1 62O      -0.344100
     15 N13         -3.5160     1.1360     0.0250 na         1 62O      -0.005200
     16 N16         -4.8900     0.9280     0.0320 nc         1 62O      -0.507800
     17 H1           3.9560    -1.7790     0.0150 ha         1 62O       0.120000
     18 H2          -3.5710    -2.1120     0.0460 ha         1 62O       0.163000
     19 H3           6.4640     0.9370    -0.0120 h1         1 62O       0.041700
     20 H4           5.7280    -0.4030     0.8920 h1         1 62O       0.041700
     21 H5           5.7210    -0.4140    -0.8920 h1         1 62O       0.041700
     22 H6          -5.9790    -0.8480     0.0480 h4         1 62O       0.041100
     23 H7          -0.7740     1.8460     0.0100 hn         1 62O       0.353000
     24 H8           2.0440     2.1310    -0.0030 ha         1 62O       0.132000
     25 H10          1.7180    -2.8710     0.0310 ha         1 62O       0.131000
     26 H11         -3.1320     2.0800     0.0180 hn         1 62O       0.366000
@<TRIPOS>BOND
     1     1     2 ar  
     2     1    10 1   
     3     1    11 ar  
     4     2    12 1   
     5     2    13 ar  
     6     3     6 1   
     7     3    10 1   
     8     3    12 2   
     9     4     5 ar  
    10     4    11 ar  
    11     4    14 1   
    12     5    13 ar  
    13     5    17 1   
    14     6     7 2   
    15     6    15 1   
    16     7     9 1   
    17     7    18 1   
    18     8    14 1   
    19     8    19 1   
    20     8    20 1   
    21     8    21 1   
    22     9    16 2   
    23     9    22 1   
    24    10    23 1   
    25    11    24 1   
    26    13    25 1   
    27    15    16 1   
    28    15    26 1   
@<TRIPOS>SUBSTRUCTURE
     1 62O         1 TEMP              0 ****  ****    0 ROOT
