@<TRIPOS>MOLECULE
62P
   30    32     1     0     0
SMALL
abcg2


@<TRIPOS>ATOM
      1 C2          -2.9600     0.5500     1.1310 cc         1 62P      -0.177600
      2 C3          -2.6470    -0.2400    -0.0100 cc         1 62P       0.145000
      3 S8          -1.6570    -1.7110     0.1390 sy         1 62P       1.029400
      4 O19         -1.9140    -2.2670     1.4570 o          1 62P      -0.496000
      5 O18         -1.8400    -2.5020    -1.0610 o          1 62P      -0.496000
      6 C9          -0.0250    -1.0750     0.1320 cc         1 62P      -0.174000
      7 O13          0.4110    -0.7110    -1.1040 os         1 62P      -0.118200
      8 C12          1.6460    -0.2020    -0.9240 ca         1 62P       0.095100
      9 C17          2.4870     0.2870    -1.9090 ca         1 62P      -0.102000
     10 C16          3.7170     0.7560    -1.4880 ca         1 62P      -0.064000
     11 C15          4.0730     0.7250    -0.1320 ca         1 62P       0.090000
     12 CL21         5.6340     1.3260     0.3230 cl         1 62P      -0.193000
     13 C14          3.2320     0.2330     0.8440 ca         1 62P      -0.036000
     14 C11          1.9880    -0.2400     0.4240 ca         1 62P      -0.148800
     15 C10          0.8670    -0.8170     1.1190 cd         1 62P       0.036600
     16 C20          0.8000    -1.0150     2.5900 c3         1 62P      -0.055900
     17 N4          -3.0240     0.0490    -1.2060 nd         1 62P      -0.296300
     18 N5          -3.7400     1.1310    -1.3670 ns         1 62P      -0.208900
     19 C6          -4.1540     2.0220    -0.3880 c          1 62P       0.539200
     20 O7          -4.8290     2.9920    -0.6770 o          1 62P      -0.512000
     21 C1          -3.6990     1.6610     0.9400 cd         1 62P      -0.272200
     22 H2          -2.6200     0.2640     2.1170 ha         1 62P       0.215000
     23 H17          2.2060     0.3050    -2.9530 ha         1 62P       0.144000
     24 H16          4.4150     1.1480    -2.2150 ha         1 62P       0.137000
     25 H14          3.5240     0.2130     1.8850 ha         1 62P       0.139000
     26 H201         0.8220    -0.0500     3.0970 hc         1 62P       0.066700
     27 H202        -0.0910    -1.5470     2.9050 hc         1 62P       0.066700
     28 H203         1.6720    -1.5760     2.9280 hc         1 62P       0.066700
     29 HN5         -4.0180     1.3130    -2.3250 hn         1 62P       0.361500
     30 H1          -3.9730     2.3070     1.7620 ha         1 62P       0.219000
@<TRIPOS>BOND
     1     1     2 1   
     2     1    21 2   
     3     1    22 1   
     4     2     3 1   
     5     2    17 2   
     6     3     4 2   
     7     3     5 2   
     8     3     6 1   
     9     6     7 1   
    10     6    15 2   
    11     7     8 1   
    12     8     9 ar  
    13     8    14 ar  
    14     9    10 ar  
    15     9    23 1   
    16    10    11 ar  
    17    10    24 1   
    18    11    12 1   
    19    11    13 ar  
    20    13    14 ar  
    21    13    25 1   
    22    14    15 1   
    23    15    16 1   
    24    16    26 1   
    25    16    27 1   
    26    16    28 1   
    27    17    18 1   
    28    18    19 1   
    29    18    29 1   
    30    19    20 2   
    31    19    21 1   
    32    21    30 1   
@<TRIPOS>SUBSTRUCTURE
     1 62P         1 TEMP              0 ****  ****    0 ROOT
