@<TRIPOS>MOLECULE
62P
   30    32     1     0     0
SMALL
No Charge or Current Charge


@<TRIPOS>ATOM
      1 C2          -2.2270     1.0820    -0.1290 cc         1 62P      -0.177600
      2 C3          -2.7050    -0.2880    -0.1760 cc         1 62P       0.145000
      3 S8          -1.6060    -1.6890    -0.6080 sy         1 62P       1.029400
      4 O19         -1.8190    -2.7410     0.4010 o          1 62P      -0.496000
      5 O18         -1.7960    -1.9860    -2.0380 o          1 62P      -0.496000
      6 C9           0.0800    -1.0700    -0.4050 cc         1 62P      -0.174000
      7 O13          0.9140    -0.8810    -1.5110 os         1 62P      -0.118200
      8 C12          2.0760    -0.3680    -0.9790 ca         1 62P       0.095100
      9 C17          3.2230    -0.0170    -1.7020 ca         1 62P      -0.102000
     10 C16          4.3270     0.5000    -0.9870 ca         1 62P      -0.064000
     11 C15          4.2600     0.6520     0.4190 ca         1 62P       0.090000
     12 Cl21         5.6440     1.2980     1.2930 cl         1 62P      -0.193000
     13 C14          3.0930     0.2910     1.1250 ca         1 62P      -0.036000
     14 C11          2.0180    -0.2180     0.3810 ca         1 62P      -0.148800
     15 C10          0.7130    -0.6710     0.7630 cd         1 62P       0.036600
     16 C20          0.1490    -0.6950     2.1620 c3         1 62P      -0.055900
     17 N4          -3.9880    -0.5740     0.0870 nd         1 62P      -0.296300
     18 N5          -4.8230     0.4760     0.4120 ns         1 62P      -0.208900
     19 C6          -4.5200     1.8200     0.5060 c          1 62P       0.539200
     20 O7          -5.3410     2.6730     0.8060 o          1 62P      -0.512000
     21 C1          -3.1060     2.0990     0.2040 cd         1 62P      -0.272200
     22 H2          -1.1860     1.2980    -0.3600 ha         1 62P       0.215000
     23 H17          3.2590    -0.1390    -2.7810 ha         1 62P       0.144000
     24 H16          5.2320     0.7830    -1.5180 ha         1 62P       0.137000
     25 H14          3.0380     0.4070     2.2040 ha         1 62P       0.139000
     26 H201         0.8530    -0.2750     2.8890 hc         1 62P       0.066700
     27 H202        -0.7760    -0.1120     2.2280 hc         1 62P       0.066700
     28 H203        -0.0750    -1.7210     2.4770 hc         1 62P       0.066700
     29 HN5         -5.7930     0.2540     0.6130 hn         1 62P       0.361500
     30 H1          -2.8140     3.1430     0.2570 ha         1 62P       0.219000
@<TRIPOS>BOND
     1     1     2 1   
     2     1    21 2   
     3     1    22 1   
     4     2     3 1   
     5     2    17 2   
     6     3     4 2   
     7     3     5 2   
     8     3     6 1   
     9     6     7 1   
    10     6    15 2   
    11     7     8 1   
    12     8     9 ar  
    13     8    14 ar  
    14     9    10 ar  
    15     9    23 1   
    16    10    11 ar  
    17    10    24 1   
    18    11    12 1   
    19    11    13 ar  
    20    13    14 ar  
    21    13    25 1   
    22    14    15 1   
    23    15    16 1   
    24    16    26 1   
    25    16    27 1   
    26    16    28 1   
    27    17    18 1   
    28    18    19 1   
    29    18    29 1   
    30    19    20 2   
    31    19    21 1   
    32    21    30 1   
@<TRIPOS>SUBSTRUCTURE
     1 62P         1 TEMP              0 ****  ****    0 ROOT
