@<TRIPOS>MOLECULE
62Q
   88    92     1     0     0
SMALL
abcg2


@<TRIPOS>ATOM
      1 F1          -0.4630     7.1850     1.2840 f          1 62Q      -0.114000
      2 F2          -0.1740     7.5920    -0.8070 f          1 62Q      -0.114000
      3 F3           1.5170     7.1430     0.4400 f          1 62Q      -0.114000
      4 F4          -1.8060    -6.0240     1.1880 f          1 62Q      -0.103333
      5 F5          -1.2660    -4.0560     0.5170 f          1 62Q      -0.103333
      6 F6          -2.3050    -5.4020    -0.8050 f          1 62Q      -0.103333
      7 C1          -0.4980     0.4350     1.1410 c6         1 62Q      -0.108400
      8 C2          -1.0370    -0.7650     1.9050 c6         1 62Q      -0.099400
      9 C3          -2.5160    -0.9560     1.6250 c6         1 62Q       0.097000
     10 N1          -2.7470    -1.1050     0.1930 n          1 62Q      -0.401800
     11 C4          -2.2870     0.0660    -0.5730 c6         1 62Q       0.138700
     12 C5          -0.7510     0.2750    -0.3650 c6         1 62Q       0.116000
     13 C6           0.0650    -0.9140    -0.9270 c          1 62Q       0.618100
     14 N2           1.4150    -0.9080    -0.8070 n          1 62Q      -0.409800
     15 O1          -0.5200    -1.8520    -1.4370 o          1 62Q      -0.565100
     16 C7          -0.2290     2.6660    -0.7480 ca         1 62Q       0.172100
     17 C8           0.8970     3.3700    -1.1740 ca         1 62Q      -0.166000
     18 C9           1.0490     4.7070    -0.8590 ca         1 62Q      -0.033000
     19 C10          0.0820     5.3620    -0.1040 ca         1 62Q      -0.224300
     20 C11         -1.0470     4.6670     0.3060 ca         1 62Q      -0.033000
     21 C12         -1.2090     3.3290    -0.0170 ca         1 62Q      -0.166000
     22 O3          -3.3040    -2.5640    -1.4940 o          1 62Q      -0.536100
     23 C14         -3.9580    -3.1610     0.6500 ca         1 62Q      -0.152600
     24 C15         -5.1970    -2.7550     1.1390 ca         1 62Q       0.348900
     25 N3          -5.9940    -3.5220     1.8670 nb         1 62Q      -0.645000
     26 C16         -5.5820    -4.7480     2.1520 ca         1 62Q       0.340900
     27 C17         -4.3660    -5.2580     1.7230 ca         1 62Q      -0.124000
     28 C18         -3.5410    -4.4540     0.9540 ca         1 62Q      -0.127300
     29 C19          2.1650    -2.0730    -1.2560 c6         1 62Q       0.096000
     30 C20          3.1750    -2.4970    -0.2030 c6         1 62Q       0.172300
     31 N4           4.0690    -1.4000     0.0940 nh         1 62Q      -0.766400
     32 C21          3.3250    -0.2440     0.5710 c6         1 62Q       0.172300
     33 C22          2.3030     0.1910    -0.4610 c6         1 62Q       0.096000
     34 C23          5.2490    -1.6950     0.7930 ca         1 62Q       0.239000
     35 C24          5.4170    -2.8480     1.5520 ca         1 62Q      -0.127000
     36 C25          6.6130    -3.1160     2.2120 ca         1 62Q      -0.126000
     37 C26          7.6570    -2.2140     2.1320 ca         1 62Q      -0.092000
     38 C27          7.5190    -1.0540     1.3730 ca         1 62Q      -0.184000
     39 C28          6.3360    -0.7970     0.6940 ca         1 62Q       0.132100
     40 O4           6.1420     0.2720    -0.0990 os         1 62Q      -0.333100
     41 C32          7.0120     1.3840    -0.0060 c3         1 62Q       0.158600
     42 C33          6.3770     2.5330    -0.7460 c3         1 62Q       0.159600
     43 O5           5.2000     2.9250    -0.0790 oh         1 62Q      -0.656000
     44 C35          0.2400     6.8140     0.2070 c3         1 62Q       0.360300
     45 C36         -2.2240    -4.9840     0.4610 c3         1 62Q       0.359300
     46 C37         -2.8320     0.1740    -2.0030 c3         1 62Q      -0.072400
     47 C38         -3.0290     1.6020    -2.5110 c3         1 62Q      -0.075400
     48 C39         -3.8020     1.6100    -3.8240 c3         1 62Q      -0.090100
     49 H1          -1.0140     1.3240     1.5090 hc         1 62Q       0.059700
     50 H2           0.5550     0.5790     1.3700 hc         1 62Q       0.059700
     51 H3          -0.4910    -1.6740     1.6480 hc         1 62Q       0.062700
     52 H4          -0.8940    -0.6000     2.9740 hc         1 62Q       0.062700
     53 H5          -2.8810    -1.8250     2.1640 h1         1 62Q       0.052700
     54 H6          -3.0780    -0.0900     1.9910 h1         1 62Q       0.052700
     55 H7          -2.7450     0.9040    -0.0300 h1         1 62Q       0.031700
     56 H8           1.6530     2.8650    -1.7610 ha         1 62Q       0.130500
     57 H9           1.9340     5.2250    -1.2060 ha         1 62Q       0.129500
     58 H10         -1.8240     5.1540     0.8790 ha         1 62Q       0.129500
     59 H11         -2.1140     2.8320     0.3010 ha         1 62Q       0.130500
     60 H12         -5.5530    -1.7530     0.9230 h4         1 62Q       0.031100
     61 H13         -6.2430    -5.3620     2.7520 h4         1 62Q       0.029100
     62 H14         -4.0900    -6.2660     1.9990 ha         1 62Q       0.144000
     63 H15          1.4830    -2.8940    -1.4520 h1         1 62Q       0.062200
     64 H16          2.6850    -1.8350    -2.1910 h1         1 62Q       0.062200
     65 H17          2.6290    -2.8530     0.6860 h1         1 62Q       0.047700
     66 H18          3.7470    -3.3400    -0.5950 h1         1 62Q       0.047700
     67 H19          2.8170    -0.4700     1.5210 h1         1 62Q       0.047700
     68 H20          3.9940     0.5960     0.7420 h1         1 62Q       0.047700
     69 H21          2.8250     0.5220    -1.3650 h1         1 62Q       0.062200
     70 H22          1.7700     1.0460    -0.0690 h1         1 62Q       0.062200
     71 H23          4.6010    -3.5530     1.6430 ha         1 62Q       0.115000
     72 H24          6.7120    -4.0230     2.7940 ha         1 62Q       0.115000
     73 H25          8.5900    -2.4040     2.6470 ha         1 62Q       0.113000
     74 H26          8.3560    -0.3730     1.2990 ha         1 62Q       0.115000
     75 H27          7.1880     1.6540     1.0410 h1         1 62Q       0.043200
     76 H28          7.9840     1.1650    -0.4610 h1         1 62Q       0.043200
     77 H29          7.1150     3.3440    -0.7850 h1         1 62Q       0.032200
     78 H30          6.1790     2.2320    -1.7820 h1         1 62Q       0.032200
     79 H31          4.7240     3.5400    -0.6440 ho         1 62Q       0.443000
     80 H32         -2.2290    -0.3970    -2.7080 hc         1 62Q       0.071700
     81 H33         -3.8210    -0.2840    -2.0070 hc         1 62Q       0.071700
     82 H34         -3.5820     2.1860    -1.7680 hc         1 62Q       0.037200
     83 H35         -2.0780     2.1110    -2.6620 hc         1 62Q       0.037200
     84 H36         -3.9360     2.6260    -4.1990 hc         1 62Q       0.034367
     85 H37         -3.2770     1.0420    -4.5950 hc         1 62Q       0.034367
     86 H38         -4.7930     1.1670    -3.7060 hc         1 62Q       0.034367
     87 O2          -0.3070     1.3790    -1.1590 os         1 62Q      -0.363100
     88 C13         -3.2550    -2.2440    -0.3220 c          1 62Q       0.631700
@<TRIPOS>BOND
     1     1    44 1   
     2     2    44 1   
     3     3    44 1   
     4     4    45 1   
     5     5    45 1   
     6     6    45 1   
     7     7     8 1   
     8     7    12 1   
     9     7    49 1   
    10     7    50 1   
    11     8     9 1   
    12     8    51 1   
    13     8    52 1   
    14     9    10 1   
    15     9    53 1   
    16     9    54 1   
    17    10    11 1   
    18    10    88 1   
    19    11    12 1   
    20    11    46 1   
    21    11    55 1   
    22    12    13 1   
    23    12    87 1   
    24    13    14 1   
    25    13    15 2   
    26    14    29 1   
    27    14    33 1   
    28    16    17 ar  
    29    16    21 ar  
    30    16    87 1   
    31    17    18 ar  
    32    17    56 1   
    33    18    19 ar  
    34    18    57 1   
    35    19    20 ar  
    36    19    44 1   
    37    20    21 ar  
    38    20    58 1   
    39    21    59 1   
    40    22    88 2   
    41    23    24 ar  
    42    23    28 ar  
    43    23    88 1   
    44    24    25 ar  
    45    24    60 1   
    46    25    26 ar  
    47    26    27 ar  
    48    26    61 1   
    49    27    28 ar  
    50    27    62 1   
    51    28    45 1   
    52    29    30 1   
    53    29    63 1   
    54    29    64 1   
    55    30    31 1   
    56    30    65 1   
    57    30    66 1   
    58    31    32 1   
    59    31    34 1   
    60    32    33 1   
    61    32    67 1   
    62    32    68 1   
    63    33    69 1   
    64    33    70 1   
    65    34    35 ar  
    66    34    39 ar  
    67    35    36 ar  
    68    35    71 1   
    69    36    37 ar  
    70    36    72 1   
    71    37    38 ar  
    72    37    73 1   
    73    38    39 ar  
    74    38    74 1   
    75    39    40 1   
    76    40    41 1   
    77    41    42 1   
    78    41    75 1   
    79    41    76 1   
    80    42    43 1   
    81    42    77 1   
    82    42    78 1   
    83    43    79 1   
    84    46    47 1   
    85    46    80 1   
    86    46    81 1   
    87    47    48 1   
    88    47    82 1   
    89    47    83 1   
    90    48    84 1   
    91    48    85 1   
    92    48    86 1   
@<TRIPOS>SUBSTRUCTURE
     1 62Q         1 TEMP              0 ****  ****    0 ROOT
