@<TRIPOS>MOLECULE
62Q
   88    92     1     0     0
SMALL
No Charge or Current Charge


@<TRIPOS>ATOM
      1 F1          -0.9530     8.8570    -0.4070 f          1 62Q      -0.114000
      2 F2           0.4580     8.2870    -1.9590 f          1 62Q      -0.114000
      3 F3           1.0280     8.1620     0.1350 f          1 62Q      -0.114000
      4 F4           0.6340    -5.5800     1.9100 f          1 62Q      -0.103333
      5 F5           0.6470    -3.4670     1.4610 f          1 62Q      -0.103333
      6 F6           0.1940    -4.9180    -0.1050 f          1 62Q      -0.103333
      7 C1          -1.0710     1.5840     1.3890 c6         1 62Q      -0.108400
      8 C2          -0.9640     0.3130     2.2680 c6         1 62Q      -0.099400
      9 C3          -2.1880    -0.5810     2.0630 c6         1 62Q       0.097000
     10 N1          -2.2360    -0.9810     0.6430 n          1 62Q      -0.401800
     11 C4          -2.4210     0.1930    -0.2830 c6         1 62Q       0.138700
     12 C5          -1.3450     1.3610    -0.1530 c6         1 62Q       0.116000
     13 C6          -0.0970     0.9810    -1.0550 c          1 62Q       0.618100
     14 N2           0.8240    -0.0040    -0.6460 n          1 62Q      -0.409800
     15 O1           0.0980     1.5510    -2.1250 o          1 62Q      -0.565100
     16 C7          -1.4560     3.8410    -0.6450 ca         1 62Q       0.172100
     17 C8          -0.0980     4.1240    -0.3800 ca         1 62Q      -0.166000
     18 C9           0.3700     5.4490    -0.4050 ca         1 62Q      -0.033000
     19 C10         -0.5080     6.5150    -0.6910 ca         1 62Q      -0.224300
     20 C11         -1.8600     6.2280    -0.9730 ca         1 62Q      -0.033000
     21 C12         -2.3230     4.9020    -0.9480 ca         1 62Q      -0.166000
     22 O3          -1.2740    -2.5170    -0.7950 o          1 62Q      -0.536100
     23 C14         -2.3080    -3.4120     1.1510 ca         1 62Q      -0.152600
     24 C15         -3.6530    -3.3760     1.5710 ca         1 62Q       0.348900
     25 N3          -4.2300    -4.3320     2.3320 nb         1 62Q      -0.645000
     26 C16         -3.4670    -5.3810     2.7030 ca         1 62Q       0.340900
     27 C17         -2.1180    -5.5110     2.3380 ca         1 62Q      -0.124000
     28 C18         -1.4970    -4.5160     1.5470 ca         1 62Q      -0.127300
     29 C19          1.3870    -0.8680    -1.7290 c6         1 62Q       0.096000
     30 C20          2.2160    -2.0740    -1.2150 c6         1 62Q       0.172300
     31 N4           3.2660    -1.6630    -0.2400 nh         1 62Q      -0.766400
     32 C21          2.7490    -0.7740     0.8360 c6         1 62Q       0.172300
     33 C22          1.9300     0.4150     0.2660 c6         1 62Q       0.096000
     34 C23          4.3890    -2.4980     0.0240 ca         1 62Q       0.239000
     35 C24          4.2260    -3.9000     0.0340 ca         1 62Q      -0.127000
     36 C25          5.3110    -4.7510     0.3000 ca         1 62Q      -0.126000
     37 C26          6.5790    -4.2120     0.5620 ca         1 62Q      -0.092000
     38 C27          6.7660    -2.8210     0.5580 ca         1 62Q      -0.184000
     39 C28          5.6800    -1.9530     0.2910 ca         1 62Q       0.132100
     40 O4           5.8520    -0.5750     0.2700 os         1 62Q      -0.333100
     41 C32          7.1140     0.0590     0.5560 c3         1 62Q       0.158600
     42 C33          6.9350     1.5960     0.4640 c3         1 62Q       0.159600
     43 O5           6.0820     2.0920     1.5130 oh         1 62Q      -0.656000
     44 C35          0.0060     7.9590    -0.7280 c3         1 62Q       0.360300
     45 C36         -0.0030    -4.6210     1.1990 c3         1 62Q       0.359300
     46 C37         -2.7900    -0.2210    -1.7580 c3         1 62Q      -0.072400
     47 C38         -3.4760     0.8530    -2.6380 c3         1 62Q      -0.075400
     48 C39         -3.9880     0.2930    -3.9790 c3         1 62Q      -0.090100
     49 H1          -1.8990     2.1830     1.7940 hc         1 62Q       0.059700
     50 H2          -0.1830     2.2040     1.5510 hc         1 62Q       0.059700
     51 H3          -0.0580    -0.2600     2.0410 hc         1 62Q       0.062700
     52 H4          -0.8910     0.6000     3.3270 hc         1 62Q       0.062700
     53 H5          -2.1080    -1.4520     2.7270 h1         1 62Q       0.052700
     54 H6          -3.1070    -0.0400     2.3300 h1         1 62Q       0.052700
     55 H7          -3.3540     0.6470     0.0810 h1         1 62Q       0.031700
     56 H8           0.6180     3.3400    -0.1690 ha         1 62Q       0.130500
     57 H9           1.4220     5.6420    -0.2050 ha         1 62Q       0.129500
     58 H10         -2.5580     7.0280    -1.2150 ha         1 62Q       0.129500
     59 H11         -3.3670     4.6930    -1.1640 ha         1 62Q       0.130500
     60 H12         -4.3070    -2.5570     1.2720 h4         1 62Q       0.031100
     61 H13         -3.9510    -6.1410     3.3150 h4         1 62Q       0.029100
     62 H14         -1.5710    -6.3840     2.6850 ha         1 62Q       0.144000
     63 H15          0.5690    -1.2440    -2.3580 h1         1 62Q       0.062200
     64 H16          2.0330    -0.2550    -2.3740 h1         1 62Q       0.062200
     65 H17          1.5310    -2.7930    -0.7520 h1         1 62Q       0.047700
     66 H18          2.6770    -2.5730    -2.0800 h1         1 62Q       0.047700
     67 H19          2.1100    -1.3500     1.5200 h1         1 62Q       0.047700
     68 H20          3.5760    -0.3690     1.4370 h1         1 62Q       0.047700
     69 H21          2.6150     1.0680    -0.2940 h1         1 62Q       0.062200
     70 H22          1.5500     1.0110     1.1020 h1         1 62Q       0.062200
     71 H23          3.2500    -4.3390    -0.1530 ha         1 62Q       0.115000
     72 H24          5.1680    -5.8300     0.3070 ha         1 62Q       0.115000
     73 H25          7.4180    -4.8740     0.7680 ha         1 62Q       0.113000
     74 H26          7.7610    -2.4360     0.7610 ha         1 62Q       0.115000
     75 H27          7.4680    -0.2060     1.5610 h1         1 62Q       0.043200
     76 H28          7.8730    -0.2530    -0.1730 h1         1 62Q       0.043200
     77 H29          7.9250     2.0650     0.5330 h1         1 62Q       0.032200
     78 H30          6.5190     1.8480    -0.5210 h1         1 62Q       0.032200
     79 H31          6.0050     3.0640     1.3840 ho         1 62Q       0.443000
     80 H32         -1.9060    -0.5820    -2.2950 hc         1 62Q       0.071700
     81 H33         -3.4780    -1.0740    -1.7080 hc         1 62Q       0.071700
     82 H34         -4.3170     1.2950    -2.0900 hc         1 62Q       0.037200
     83 H35         -2.7690     1.6610    -2.8590 hc         1 62Q       0.037200
     84 H36         -4.4540     1.0880    -4.5720 hc         1 62Q       0.034367
     85 H37         -3.1620    -0.1320    -4.5630 hc         1 62Q       0.034367
     86 H38         -4.7350    -0.4930    -3.8130 hc         1 62Q       0.034367
     87 O2          -2.0100     2.5690    -0.6440 os         1 62Q      -0.363100
     88 C13         -1.8430    -2.2880     0.2600 c          1 62Q       0.631700
@<TRIPOS>BOND
     1     1    44 1   
     2     2    44 1   
     3     3    44 1   
     4     4    45 1   
     5     5    45 1   
     6     6    45 1   
     7     7     8 1   
     8     7    12 1   
     9     7    49 1   
    10     7    50 1   
    11     8     9 1   
    12     8    51 1   
    13     8    52 1   
    14     9    10 1   
    15     9    53 1   
    16     9    54 1   
    17    10    11 1   
    18    10    88 1   
    19    11    12 1   
    20    11    46 1   
    21    11    55 1   
    22    12    13 1   
    23    12    87 1   
    24    13    14 1   
    25    13    15 2   
    26    14    29 1   
    27    14    33 1   
    28    16    17 ar  
    29    16    21 ar  
    30    16    87 1   
    31    17    18 ar  
    32    17    56 1   
    33    18    19 ar  
    34    18    57 1   
    35    19    20 ar  
    36    19    44 1   
    37    20    21 ar  
    38    20    58 1   
    39    21    59 1   
    40    22    88 2   
    41    23    24 ar  
    42    23    28 ar  
    43    23    88 1   
    44    24    25 ar  
    45    24    60 1   
    46    25    26 ar  
    47    26    27 ar  
    48    26    61 1   
    49    27    28 ar  
    50    27    62 1   
    51    28    45 1   
    52    29    30 1   
    53    29    63 1   
    54    29    64 1   
    55    30    31 1   
    56    30    65 1   
    57    30    66 1   
    58    31    32 1   
    59    31    34 1   
    60    32    33 1   
    61    32    67 1   
    62    32    68 1   
    63    33    69 1   
    64    33    70 1   
    65    34    35 ar  
    66    34    39 ar  
    67    35    36 ar  
    68    35    71 1   
    69    36    37 ar  
    70    36    72 1   
    71    37    38 ar  
    72    37    73 1   
    73    38    39 ar  
    74    38    74 1   
    75    39    40 1   
    76    40    41 1   
    77    41    42 1   
    78    41    75 1   
    79    41    76 1   
    80    42    43 1   
    81    42    77 1   
    82    42    78 1   
    83    43    79 1   
    84    46    47 1   
    85    46    80 1   
    86    46    81 1   
    87    47    48 1   
    88    47    82 1   
    89    47    83 1   
    90    48    84 1   
    91    48    85 1   
    92    48    86 1   
@<TRIPOS>SUBSTRUCTURE
     1 62Q         1 TEMP              0 ****  ****    0 ROOT
