@<TRIPOS>MOLECULE
62R
   89    93     1     0     0
SMALL
abcg2


@<TRIPOS>ATOM
      1 C1          -5.3410     1.7000     2.0750 ca         1 62R       0.163100
      2 C2          -6.2650     2.1780     2.9970 ca         1 62R      -0.196000
      3 C3          -5.9910     2.1300     4.3610 ca         1 62R      -0.088000
      4 C4          -4.7920     1.6110     4.8090 ca         1 62R      -0.151000
      5 C5          -3.8550     1.1540     3.8870 ca         1 62R      -0.129000
      6 C6          -6.7510     2.2200     0.2220 c3         1 62R       0.148600
      7 C10         -2.5570     1.7150     0.7280 c6         1 62R       0.170800
      8 C11         -1.8640     1.0610    -0.4520 c6         1 62R       0.093000
      9 C12          0.4000     0.1980    -0.3930 c          1 62R       0.619100
     10 C13          1.4480    -0.8210     0.1100 c6         1 62R       0.109000
     11 C15          3.6440     0.7850     1.2110 c6         1 62R       0.100000
     12 C22          5.1940     5.0370    -0.0080 ca         1 62R      -0.124000
     13 F5          -0.3200    -7.3930     0.3930 f          1 62R      -0.108333
     14 F3          -1.5580    -6.2150     1.6930 f          1 62R      -0.108333
     15 F4           0.2060    -7.1980     2.4670 f          1 62R      -0.108333
     16 C30          0.5220    -5.3270     1.1190 cc         1 62R      -0.356300
     17 S            2.1940    -5.2910     1.4900 ss         1 62R       0.299000
     18 C29          2.3570    -3.7300     0.8170 cc         1 62R      -0.315000
     19 C31          0.1020    -4.1830     0.5170 cd         1 62R      -0.066000
     20 C28          1.1650    -3.2530     0.3470 cd         1 62R       0.110100
     21 O5           0.9080    -2.0870    -0.2830 os         1 62R      -0.335100
     22 C17          1.6550    -0.6800     1.6240 c6         1 62R      -0.105400
     23 C16          2.3360     0.6370     1.9630 c6         1 62R      -0.098400
     24 N2           3.4190     0.6770    -0.2250 n          1 62R      -0.399800
     25 C19          4.5900     2.7820    -0.5240 ca         1 62R      -0.148600
     26 C23          4.2180     4.1090    -0.3350 ca         1 62R      -0.126300
     27 C24          2.7890     4.5490    -0.4860 c3         1 62R       0.359300
     28 F2           1.9390     3.6390    -0.0090 f          1 62R      -0.100333
     29 F1           2.5520     5.6900     0.1680 f          1 62R      -0.100333
     30 F            2.4760     4.7630    -1.7670 f          1 62R      -0.100333
     31 C21          6.5080     4.6090     0.1080 ca         1 62R       0.334900
     32 N3           6.8770     3.3490    -0.0720 nb         1 62R      -0.652000
     33 C20          5.9390     2.4670    -0.3760 ca         1 62R       0.346900
     34 C14          2.8280    -0.6190    -0.5970 c6         1 62R       0.139700
     35 C25          2.9020    -0.9820    -2.0860 c3         1 62R      -0.072400
     36 O3           0.7560     1.0980    -1.1300 o          1 62R      -0.569100
     37 N1          -0.8900     0.0800     0.0050 n          1 62R      -0.403800
     38 C33         -1.5140    -0.9190     0.8540 c6         1 62R       0.093000
     39 C34         -2.2120    -0.2580     2.0330 c6         1 62R       0.170800
     40 N           -3.1880     0.7030     1.5650 nh         1 62R      -0.753400
     41 C           -4.1010     1.1890     2.5190 ca         1 62R       0.216000
     42 O           -5.5500     1.6750     0.7460 os         1 62R      -0.332100
     43 C7          -6.7110     2.1090    -1.2870 c3         1 62R      -0.058400
     44 C8          -7.9860     2.6590    -1.9060 c3         1 62R      -0.208400
     45 O1          -9.0680     3.1080    -3.9630 o          1 62R      -0.736000
     46 O2          -7.1650     1.9530    -4.0370 o          1 62R      -0.736000
     47 H1          -7.2170     2.5730     2.6700 ha         1 62R       0.124000
     48 H2          -6.7300     2.4960     5.0630 ha         1 62R       0.104000
     49 H3          -4.5710     1.5640     5.8670 ha         1 62R       0.102000
     50 H4          -2.9130     0.7640     4.2500 ha         1 62R       0.101000
     51 H5          -7.6190     1.6770     0.6170 h1         1 62R       0.022700
     52 H6          -6.8560     3.2680     0.5280 h1         1 62R       0.022700
     53 H7          -1.8210     2.3000     1.3020 h1         1 62R       0.041700
     54 H8          -3.3020     2.4090     0.3460 h1         1 62R       0.041700
     55 H9          -2.6070     0.5570    -1.0800 h1         1 62R       0.068700
     56 H10         -1.3710     1.8160    -1.0550 h1         1 62R       0.068700
     57 H11          4.0940     1.7410     1.4580 h1         1 62R       0.048200
     58 H12          4.3490     0.0060     1.5220 h1         1 62R       0.048200
     59 H13          4.9620     6.0790     0.1610 ha         1 62R       0.142000
     60 H14          3.9400    -2.8430    -1.7680 hc         1 62R       0.036200
     61 H15          2.2360    -3.0590    -2.0920 hc         1 62R       0.036200
     62 H16          3.3270    -3.2590     0.8100 h4         1 62R       0.159000
     63 H17         -0.9130    -3.9950     0.1950 ha         1 62R       0.165000
     64 H18          0.7220    -0.7600     2.1800 hc         1 62R       0.057200
     65 H19          2.2890    -1.4940     1.9820 hc         1 62R       0.057200
     66 H20          2.5390     0.6650     3.0350 hc         1 62R       0.062200
     67 H21          1.6840     1.4860     1.7450 hc         1 62R       0.062200
     68 H22          7.2870     5.3180     0.3600 h4         1 62R       0.025100
     69 H23          6.2650     1.4420    -0.5150 h4         1 62R       0.029100
     70 H24          3.4960    -1.3330    -0.0940 h1         1 62R       0.026700
     71 H25          3.7700    -0.4760    -2.5070 hc         1 62R       0.072700
     72 H26          2.0380    -0.6070    -2.6330 hc         1 62R       0.072700
     73 H27          2.5870    -2.3640    -4.4770 hc         1 62R       0.033033
     74 H28          4.3070    -2.1680    -4.1580 hc         1 62R       0.033033
     75 H29          3.5670    -3.7650    -4.0540 hc         1 62R       0.033033
     76 H30         -2.2460    -1.4760     0.2600 h1         1 62R       0.068700
     77 H31         -0.8030    -1.6370     1.2410 h1         1 62R       0.068700
     78 H32         -2.7140    -1.0340     2.6140 h1         1 62R       0.041700
     79 H33         -1.4480     0.1990     2.6820 h1         1 62R       0.041700
     80 H34         -5.8410     2.6510    -1.6690 hc         1 62R       0.056200
     81 H35         -6.5790     1.0620    -1.5710 hc         1 62R       0.056200
     82 H36         -8.1210     3.7070    -1.6190 hc         1 62R       0.016200
     83 H37         -8.8540     2.1360    -1.4860 hc         1 62R       0.016200
     84 C18          3.6710     1.7090    -1.0570 c          1 62R       0.632700
     85 C26          3.1070    -2.4700    -2.3720 c3         1 62R      -0.074400
     86 O4           3.3310     1.8180    -2.2190 o          1 62R      -0.531100
     87 C27          3.4100    -2.7060    -3.8460 c3         1 62R      -0.089100
     88 C32         -0.2910    -6.5300     1.4180 c3         1 62R       0.391300
     89 C9          -8.0730     2.5630    -3.4410 c          1 62R       0.720000
@<TRIPOS>BOND
     1     1     2 ar  
     2     1    41 ar  
     3     1    42 1   
     4     2     3 ar  
     5     2    47 1   
     6     3     4 ar  
     7     3    48 1   
     8     4     5 ar  
     9     4    49 1   
    10     5    41 ar  
    11     5    50 1   
    12     6    42 1   
    13     6    43 1   
    14     6    51 1   
    15     6    52 1   
    16     7     8 1   
    17     7    40 1   
    18     7    53 1   
    19     7    54 1   
    20     8    37 1   
    21     8    55 1   
    22     8    56 1   
    23     9    10 1   
    24     9    36 2   
    25     9    37 1   
    26    10    21 1   
    27    10    22 1   
    28    10    34 1   
    29    11    23 1   
    30    11    24 1   
    31    11    57 1   
    32    11    58 1   
    33    12    26 ar  
    34    12    31 ar  
    35    12    59 1   
    36    13    88 1   
    37    14    88 1   
    38    15    88 1   
    39    16    17 1   
    40    16    19 2   
    41    16    88 1   
    42    17    18 1   
    43    18    20 2   
    44    18    62 1   
    45    19    20 1   
    46    19    63 1   
    47    20    21 1   
    48    22    23 1   
    49    22    64 1   
    50    22    65 1   
    51    23    66 1   
    52    23    67 1   
    53    24    34 1   
    54    24    84 1   
    55    25    26 ar  
    56    25    33 ar  
    57    25    84 1   
    58    26    27 1   
    59    27    28 1   
    60    27    29 1   
    61    27    30 1   
    62    31    32 ar  
    63    31    68 1   
    64    32    33 ar  
    65    33    69 1   
    66    34    35 1   
    67    34    70 1   
    68    35    71 1   
    69    35    72 1   
    70    35    85 1   
    71    37    38 1   
    72    38    39 1   
    73    38    76 1   
    74    38    77 1   
    75    39    40 1   
    76    39    78 1   
    77    39    79 1   
    78    40    41 1   
    79    43    44 1   
    80    43    80 1   
    81    43    81 1   
    82    44    82 1   
    83    44    83 1   
    84    44    89 1   
    85    45    89 1   
    86    46    89 1   
    87    60    85 1   
    88    61    85 1   
    89    73    87 1   
    90    74    87 1   
    91    75    87 1   
    92    84    86 2   
    93    85    87 1   
@<TRIPOS>SUBSTRUCTURE
     1 62R         1 TEMP              0 ****  ****    0 ROOT
