@<TRIPOS>MOLECULE
62R
   89    93     1     0     0
SMALL
No Charge or Current Charge


@<TRIPOS>ATOM
      1 C1          -4.6470     3.4030     1.3250 ca         1 62R       0.163100
      2 C2          -5.3540     4.5450     1.7730 ca         1 62R      -0.196000
      3 C3          -4.8710     5.3020     2.8520 ca         1 62R      -0.088000
      4 C4          -3.6820     4.9290     3.4930 ca         1 62R      -0.151000
      5 C5          -2.9720     3.7980     3.0600 ca         1 62R      -0.129000
      6 C6          -6.3180     2.9590    -0.4510 c3         1 62R       0.148600
      7 C10         -2.0180     1.9120     0.2250 c6         1 62R       0.170800
      8 C11         -1.6760     0.4900    -0.2920 c6         1 62R       0.093000
      9 C12         -0.4300    -1.5800     0.1920 c          1 62R       0.619100
     10 C13          1.0410    -2.0720     0.5190 c6         1 62R       0.109000
     11 C15          2.9090    -0.1510     1.9300 c6         1 62R       0.100000
     12 C22          3.7810     4.6940     1.5290 ca         1 62R      -0.124000
     13 F5           4.7280    -7.4670    -2.0960 f          1 62R      -0.108333
     14 F3           2.6780    -8.1230    -1.7720 f          1 62R      -0.108333
     15 F4           4.1660    -8.3950    -0.2070 f          1 62R      -0.108333
     16 C30          3.4110    -6.1940    -0.6060 cc         1 62R      -0.356300
     17 S            4.6370    -5.2540     0.2440 ss         1 62R       0.299000
     18 C29          3.5020    -3.9390     0.5250 cc         1 62R      -0.315000
     19 C31          2.2180    -5.5110    -0.6480 cd         1 62R      -0.066000
     20 C28          2.2770    -4.2490    -0.0080 cd         1 62R       0.110100
     21 O5           1.1570    -3.4440     0.0070 os         1 62R      -0.335100
     22 C17          1.3000    -2.1020     2.0780 c6         1 62R      -0.105400
     23 C16          1.7480    -0.7650     2.7170 c6         1 62R      -0.098400
     24 N2           2.4530     0.1400     0.5530 n          1 62R      -0.399800
     25 C19          3.1410     2.5300     0.6600 ca         1 62R      -0.148600
     26 C23          2.7450     3.8060     1.1560 ca         1 62R      -0.126300
     27 C24          1.2720     4.2080     1.3470 c3         1 62R       0.359300
     28 F2           0.5750     3.2430     1.9830 f          1 62R      -0.100333
     29 F1           1.1280     5.3280     2.0920 f          1 62R      -0.100333
     30 F            0.6560     4.4510     0.1680 f          1 62R      -0.100333
     31 C21          5.1230     4.3020     1.4070 ca         1 62R       0.334900
     32 N3           5.4940     3.0910     0.9400 nb         1 62R      -0.652000
     33 C20          4.5160     2.2340     0.5750 ca         1 62R       0.346900
     34 C14          2.0820    -1.1020    -0.2140 c6         1 62R       0.139700
     35 C25          1.8030    -0.8710    -1.7450 c3         1 62R      -0.072400
     36 O3          -1.1870    -2.2700    -0.4860 o          1 62R      -0.569100
     37 N1          -0.9140    -0.3500     0.6830 n          1 62R      -0.403800
     38 C33         -1.6730    -0.3850     1.9700 c6         1 62R       0.093000
     39 C34         -1.9880     1.0220     2.5460 c6         1 62R       0.170800
     40 N           -2.6870     1.8860     1.5540 nh         1 62R      -0.753400
     41 C           -3.4370     3.0200     1.9780 ca         1 62R       0.216000
     42 O           -5.1180     2.6360     0.2670 os         1 62R      -0.332100
     43 C7          -6.5040     1.8970    -1.5530 c3         1 62R      -0.058400
     44 C8          -7.7720     2.1280    -2.4130 c3         1 62R      -0.208400
     45 O1          -7.3400     1.2160    -4.5600 o          1 62R      -0.736000
     46 O2          -8.4860     0.0050    -3.1960 o          1 62R      -0.736000
     47 H1          -6.2790     4.8590     1.2980 ha         1 62R       0.124000
     48 H2          -5.4190     6.1790     3.1900 ha         1 62R       0.104000
     49 H3          -3.3070     5.5200     4.3270 ha         1 62R       0.102000
     50 H4          -2.0460     3.5360     3.5640 ha         1 62R       0.101000
     51 H5          -7.1870     2.9470     0.2210 h1         1 62R       0.022700
     52 H6          -6.2390     3.9530    -0.9100 h1         1 62R       0.022700
     53 H7          -1.0920     2.4950     0.2890 h1         1 62R       0.041700
     54 H8          -2.6570     2.4080    -0.5200 h1         1 62R       0.041700
     55 H9          -2.6170    -0.0200    -0.5440 h1         1 62R       0.068700
     56 H10         -1.1050     0.5850    -1.2250 h1         1 62R       0.068700
     57 H11          3.2400     0.7600     2.4460 h1         1 62R       0.048200
     58 H12          3.7610    -0.8440     1.9020 h1         1 62R       0.048200
     59 H13          3.5660     5.6850     1.9190 ha         1 62R       0.142000
     60 H14          2.8350    -2.6420    -2.4790 hc         1 62R       0.036200
     61 H15          1.0770    -2.8070    -2.4340 hc         1 62R       0.036200
     62 H16          3.8460    -3.0680     1.0620 h4         1 62R       0.159000
     63 H17          1.3170    -5.8880    -1.1230 ha         1 62R       0.165000
     64 H18          0.4040    -2.4770     2.5880 hc         1 62R       0.057200
     65 H19          2.0600    -2.8480     2.3300 hc         1 62R       0.057200
     66 H20          2.0570    -0.9370     3.7570 hc         1 62R       0.062200
     67 H21          0.9260    -0.0410     2.7590 hc         1 62R       0.062200
     68 H22          5.9260     4.9790     1.6950 h4         1 62R       0.025100
     69 H23          4.8550     1.2760     0.1810 h4         1 62R       0.029100
     70 H24          3.0330    -1.6400    -0.2450 h1         1 62R       0.026700
     71 H25          2.5410    -0.1510    -2.1190 hc         1 62R       0.072700
     72 H26          0.8250    -0.4050    -1.9000 hc         1 62R       0.072700
     73 H27          0.8570    -1.2530    -4.3860 hc         1 62R       0.033033
     74 H28          2.6290    -1.0980    -4.4550 hc         1 62R       0.033033
     75 H29          1.8600    -2.6680    -4.7730 hc         1 62R       0.033033
     76 H30         -2.6240    -0.9100     1.8020 h1         1 62R       0.068700
     77 H31         -1.1320    -0.9600     2.7300 h1         1 62R       0.068700
     78 H32         -2.6120     0.9000     3.4430 h1         1 62R       0.041700
     79 H33         -1.0470     1.4930     2.8610 h1         1 62R       0.041700
     80 H34         -5.6200     1.8990    -2.2020 hc         1 62R       0.056200
     81 H35         -6.5580     0.9060    -1.0860 hc         1 62R       0.056200
     82 H36         -7.6420     3.1120    -2.8810 hc         1 62R       0.016200
     83 H37         -8.6190     2.0790    -1.7170 hc         1 62R       0.016200
     84 C18          2.1860     1.4760     0.1560 c          1 62R       0.632700
     85 C26          1.8920    -2.1130    -2.6650 c3         1 62R      -0.074400
     86 O4           1.3140     1.7570    -0.6510 o          1 62R      -0.531100
     87 C27          1.8040    -1.7590    -4.1620 c3         1 62R      -0.089100
     88 C32          3.7440    -7.5480    -1.1720 c3         1 62R       0.391300
     89 C9          -7.8900     1.0320    -3.4860 c          1 62R       0.720000
@<TRIPOS>BOND
     1     1     2 ar  
     2     1    41 ar  
     3     1    42 1   
     4     2     3 ar  
     5     2    47 1   
     6     3     4 ar  
     7     3    48 1   
     8     4     5 ar  
     9     4    49 1   
    10     5    41 ar  
    11     5    50 1   
    12     6    42 1   
    13     6    43 1   
    14     6    51 1   
    15     6    52 1   
    16     7     8 1   
    17     7    40 1   
    18     7    53 1   
    19     7    54 1   
    20     8    37 1   
    21     8    55 1   
    22     8    56 1   
    23     9    10 1   
    24     9    36 2   
    25     9    37 1   
    26    10    21 1   
    27    10    22 1   
    28    10    34 1   
    29    11    23 1   
    30    11    24 1   
    31    11    57 1   
    32    11    58 1   
    33    12    26 ar  
    34    12    31 ar  
    35    12    59 1   
    36    13    88 1   
    37    14    88 1   
    38    15    88 1   
    39    16    17 1   
    40    16    19 2   
    41    16    88 1   
    42    17    18 1   
    43    18    20 2   
    44    18    62 1   
    45    19    20 1   
    46    19    63 1   
    47    20    21 1   
    48    22    23 1   
    49    22    64 1   
    50    22    65 1   
    51    23    66 1   
    52    23    67 1   
    53    24    34 1   
    54    24    84 1   
    55    25    26 ar  
    56    25    33 ar  
    57    25    84 1   
    58    26    27 1   
    59    27    28 1   
    60    27    29 1   
    61    27    30 1   
    62    31    32 ar  
    63    31    68 1   
    64    32    33 ar  
    65    33    69 1   
    66    34    35 1   
    67    34    70 1   
    68    35    71 1   
    69    35    72 1   
    70    35    85 1   
    71    37    38 1   
    72    38    39 1   
    73    38    76 1   
    74    38    77 1   
    75    39    40 1   
    76    39    78 1   
    77    39    79 1   
    78    40    41 1   
    79    43    44 1   
    80    43    80 1   
    81    43    81 1   
    82    44    82 1   
    83    44    83 1   
    84    44    89 1   
    85    45    89 1   
    86    46    89 1   
    87    60    85 1   
    88    61    85 1   
    89    73    87 1   
    90    74    87 1   
    91    75    87 1   
    92    84    86 2   
    93    85    87 1   
@<TRIPOS>SUBSTRUCTURE
     1 62R         1 TEMP              0 ****  ****    0 ROOT
