@<TRIPOS>MOLECULE
62S
   76    79     1     0     0
SMALL
No Charge or Current Charge


@<TRIPOS>ATOM
      1 C15         21.7220     2.7660     2.9830 c3         1 62S      -0.069700
      2 C17         24.2420     3.0830     2.9080 cc         1 62S       0.192300
      3 C22         27.1290     0.9170     2.3510 ca         1 62S      -0.221500
      4 C24         27.8490    -1.1950     1.3480 ca         1 62S      -0.170000
      5 C26         29.5110     0.4020     2.0960 ca         1 62S      -0.165000
      6 C01         14.9450     1.8360     2.4740 ca         1 62S      -0.055300
      7 C02         14.3710     1.6310     3.7450 ca         1 62S      -0.109500
      8 C03         13.7750     0.4000     4.0680 ca         1 62S      -0.118000
      9 C04         13.7400    -0.6350     3.1200 ca         1 62S      -0.134000
     10 C05         14.2980    -0.4360     1.8470 ca         1 62S      -0.118000
     11 C06         14.8950     0.7950     1.5230 ca         1 62S      -0.109500
     12 C08         17.0470     3.0270     1.5920 c3         1 62S      -0.038400
     13 C09         17.8540     4.3580     1.5170 c3         1 62S      -0.177500
     14 C14         20.3200     3.4530     2.9100 c3         1 62S      -0.438400
     15 C16         22.9000     3.7500     2.7590 c3         1 62S      -0.123700
     16 C18         24.8510     2.1150     2.1780 cd         1 62S      -0.260000
     17 C19         26.0820     1.8530     2.8090 cd         1 62S       0.319500
     18 C23         26.8220    -0.3420     1.7840 ca         1 62S       0.185100
     19 C25         29.1940    -0.8260     1.4990 ca         1 62S      -0.076000
     20 C27         28.4890     1.2650     2.5250 ca         1 62S      -0.047000
     21 C29         21.9210     1.9920     4.3120 c          1 62S       0.594100
     22 C32         22.4170    -0.3080     5.2620 c3         1 62S       0.043700
     23 C33         23.7380    -1.0960     5.0200 c          1 62S       0.588100
     24 C36         21.1920    -1.2390     5.4630 c3         1 62S      -0.031100
     25 C37         19.8690    -0.4790     5.5320 ca         1 62S      -0.081300
     26 C38         18.9580    -0.5310     4.4570 ca         1 62S      -0.102000
     27 C39         17.7490     0.1840     4.5170 ca         1 62S      -0.106500
     28 C40         17.4450     0.9580     5.6490 ca         1 62S      -0.108000
     29 C41         18.3490     1.0140     6.7230 ca         1 62S      -0.106500
     30 C42         19.5560     0.2960     6.6650 ca         1 62S      -0.102000
     31 N10         17.1090     5.3650     0.6520 n8         1 62S      -0.968200
     32 N20         26.2650     2.6260     3.8680 nc         1 62S      -0.384300
     33 N31         22.1800     0.6490     4.1580 ns         1 62S      -0.511900
     34 O21         25.0620     3.4220     3.9550 os         1 62S      -0.041700
     35 O28         25.5380    -0.7770     1.6650 oh         1 62S      -0.587100
     36 O30         21.8800     2.5310     5.4110 o          1 62S      -0.602100
     37 P11         19.7280     3.9910     1.2510 p5         1 62S       1.389000
     38 H151        21.7680     2.0260     2.1740 hc         1 62S       0.071700
     39 H241        27.6010    -2.1560     0.9050 ha         1 62S       0.120000
     40 H261        30.5520     0.6900     2.2250 ha         1 62S       0.110000
     41 H021        14.3910     2.4250     4.4880 ha         1 62S       0.116500
     42 H031        13.3400     0.2490     5.0540 ha         1 62S       0.101000
     43 H041        13.2790    -1.5880     3.3700 ha         1 62S       0.099000
     44 H051        14.2670    -1.2350     1.1090 ha         1 62S       0.101000
     45 H061        15.3170     0.9360     0.5310 ha         1 62S       0.116500
     46 H072        15.6310     3.8090     3.0310 hc         1 62S       0.042700
     47 H071        14.9860     3.7030     1.4020 hc         1 62S       0.042700
     48 H081        17.0200     2.5660     0.5980 hc         1 62S       0.045200
     49 H082        17.5780     2.3230     2.2430 hc         1 62S       0.045200
     50 H091        17.8510     4.7880     2.5270 h1         1 62S       0.007700
     51 H142        20.2860     4.3320     3.5620 hc         1 62S       0.070200
     52 H141        19.5630     2.7530     3.2760 hc         1 62S       0.070200
     53 H161        22.8240     4.5780     3.4750 hc         1 62S       0.088700
     54 H162        22.8330     4.1950     1.7600 hc         1 62S       0.088700
     55 H181        24.4660     1.6470     1.2810 ha         1 62S       0.159000
     56 H251        29.9850    -1.4930     1.1650 ha         1 62S       0.104000
     57 H271        28.7590     2.2180     2.9770 ha         1 62S       0.128000
     58 H321        22.5670     0.2560     6.1920 h1         1 62S       0.084700
     59 H362        21.3250    -1.8270     6.3790 hc         1 62S       0.060200
     60 H361        21.1630    -1.9650     4.6400 hc         1 62S       0.060200
     61 H381        19.1860    -1.1220     3.5730 ha         1 62S       0.107500
     62 H391        17.0500     0.1380     3.6850 ha         1 62S       0.113500
     63 H401        16.5120     1.5140     5.6950 ha         1 62S       0.110000
     64 H411        18.1150     1.6140     7.5990 ha         1 62S       0.113500
     65 H421        20.2520     0.3500     7.4990 ha         1 62S       0.107500
     66 H101        16.1760     5.5450     1.0430 hn         1 62S       0.380000
     67 H1          17.5780     6.2800     0.6940 hn         1 62S       0.380000
     68 H311        22.2290     0.3000     3.2080 hn         1 62S       0.321500
     69 H352        24.9640    -2.4990     5.8530 hn         1 62S       0.325500
     70 H351        23.5580    -2.0870     6.8130 hn         1 62S       0.325500
     71 H281        25.1290    -0.7730     2.5810 ho         1 62S       0.524000
     72 N35         24.1130    -1.9710     5.9780 nt         1 62S      -0.576000
     73 O12         20.4470     5.2450     0.8580 o          1 62S      -0.811000
     74 O13         19.9270     2.8810     0.2660 o          1 62S      -0.811000
     75 O34         24.4330    -0.9660     4.0210 o          1 62S      -0.653100
     76 C07         15.6030     3.1730     2.1380 c3         1 62S      -0.040100
@<TRIPOS>BOND
     1     1    14 1   
     2     1    15 1   
     3     1    21 1   
     4     1    38 1   
     5     2    15 1   
     6     2    16 2   
     7     2    34 1   
     8     3    17 1   
     9     3    18 ar  
    10     3    20 ar  
    11     4    18 ar  
    12     4    19 ar  
    13     4    39 1   
    14     5    19 ar  
    15     5    20 ar  
    16     5    40 1   
    17     6     7 ar  
    18     6    11 ar  
    19     6    76 1   
    20     7     8 ar  
    21     7    41 1   
    22     8     9 ar  
    23     8    42 1   
    24     9    10 ar  
    25     9    43 1   
    26    10    11 ar  
    27    10    44 1   
    28    11    45 1   
    29    12    13 1   
    30    12    48 1   
    31    12    49 1   
    32    12    76 1   
    33    13    31 1   
    34    13    37 1   
    35    13    50 1   
    36    14    37 1   
    37    14    51 1   
    38    14    52 1   
    39    15    53 1   
    40    15    54 1   
    41    16    17 1   
    42    16    55 1   
    43    17    32 2   
    44    18    35 1   
    45    19    56 1   
    46    20    57 1   
    47    21    33 1   
    48    21    36 2   
    49    22    23 1   
    50    22    24 1   
    51    22    33 1   
    52    22    58 1   
    53    23    72 1   
    54    23    75 2   
    55    24    25 1   
    56    24    59 1   
    57    24    60 1   
    58    25    26 ar  
    59    25    30 ar  
    60    26    27 ar  
    61    26    61 1   
    62    27    28 ar  
    63    27    62 1   
    64    28    29 ar  
    65    28    63 1   
    66    29    30 ar  
    67    29    64 1   
    68    30    65 1   
    69    31    66 1   
    70    31    67 1   
    71    32    34 1   
    72    33    68 1   
    73    35    71 1   
    74    37    73 1   
    75    37    74 1   
    76    46    76 1   
    77    47    76 1   
    78    69    72 1   
    79    70    72 1   
@<TRIPOS>SUBSTRUCTURE
     1 62S         1 TEMP              0 ****  ****    0 ROOT
