@<TRIPOS>MOLECULE
62S
   76    79     1     0     0
SMALL
bcc


@<TRIPOS>ATOM
      1 C15         21.0780     2.5140     2.5560 c3         1 62S      -0.069700
      2 C17         23.5660     2.1170     2.0260 cc         1 62S       0.302000
      3 C22         26.9640     1.0510     2.7350 ca         1 62S      -0.221500
      4 C24         28.5330    -0.7840     2.7080 ca         1 62S      -0.188000
      5 C26         29.3460     1.4620     2.9680 ca         1 62S      -0.183000
      6 C01         15.4300     2.5380     2.9740 ca         1 62S      -0.055300
      7 C02         15.0960     2.0780     4.2450 ca         1 62S      -0.127500
      8 C03         14.4430     0.8640     4.4200 ca         1 62S      -0.136000
      9 C04         14.1210     0.0810     3.3210 ca         1 62S      -0.152000
     10 C05         14.4570     0.5230     2.0470 ca         1 62S      -0.136000
     11 C06         15.1020     1.7400     1.8770 ca         1 62S      -0.127500
     12 C08         17.5340     3.7360     2.2160 c3         1 62S      -0.038400
     13 C09         18.2520     5.0750     2.0980 c3         1 62S      -0.019700
     14 C14         20.8480     4.0000     2.8080 c3         1 62S      -0.280600
     15 C16         22.1830     2.2520     1.4990 c3         1 62S      -0.123700
     16 C18         24.5190     1.1770     1.8220 cd         1 62S      -0.408600
     17 C19         25.6150     1.6180     2.6100 cd         1 62S       0.384800
     18 C23         27.2140    -0.3290     2.6560 ca         1 62S       0.185100
     19 C25         29.5880     0.0970     2.8580 ca         1 62S      -0.094000
     20 C27         28.0450     1.9230     2.9030 ca         1 62S      -0.065000
     21 C29         21.3900     1.7530     3.8390 c          1 62S       0.661100
     22 C32         21.8850    -0.4810     4.7340 c3         1 62S       0.043700
     23 C33         23.4040    -0.5840     4.6040 c          1 62S       0.655100
     24 C36         21.2160    -1.8510     4.6100 c3         1 62S      -0.031100
     25 C37         19.7380    -1.7560     4.8700 ca         1 62S      -0.081300
     26 C38         18.8360    -1.5460     3.8300 ca         1 62S      -0.120000
     27 C39         17.4770    -1.4120     4.0840 ca         1 62S      -0.124500
     28 C40         17.0010    -1.4940     5.3860 ca         1 62S      -0.126000
     29 C41         17.8910    -1.7060     6.4300 ca         1 62S      -0.124500
     30 C42         19.2490    -1.8310     6.1720 ca         1 62S      -0.120000
     31 N10         17.5330     5.9780     1.2040 n8         1 62S      -0.857800
     32 N20         25.3120     2.7250     3.2350 nc         1 62S      -0.384300
     33 N31         21.4190     0.4090     3.6960 ns         1 62S      -0.578900
     34 O21         24.0420     3.0410     2.8650 os         1 62S      -0.086100
     35 O28         26.2600    -1.2590     2.4980 oh         1 62S      -0.548100
     36 O30         21.6090     2.2970     4.9080 o          1 62S      -0.602100
     37 P11         19.9820     4.9070     1.4350 p5         1 62S       1.073400
     38 H151        20.1630     2.0800     2.1410 hc         1 62S       0.071700
     39 H241        28.7150    -1.8500     2.6380 ha         1 62S       0.138000
     40 H261        30.1640     2.1590     3.0870 ha         1 62S       0.128000
     41 H021        15.3410     2.6820     5.1110 ha         1 62S       0.134500
     42 H031        14.1860     0.5310     5.4180 ha         1 62S       0.119000
     43 H041        13.6140    -0.8660     3.4540 ha         1 62S       0.117000
     44 H051        14.2090    -0.0790     1.1810 ha         1 62S       0.119000
     45 H061        15.3460     2.0800     0.8770 ha         1 62S       0.134500
     46 H072        16.1520     4.3960     3.7340 hc         1 62S       0.042700
     47 H071        15.5100     4.4730     2.1050 hc         1 62S       0.042700
     48 H081        17.4980     3.2560     1.2340 hc         1 62S       0.045200
     49 H082        18.1100     3.0730     2.8690 hc         1 62S       0.045200
     50 H091        18.3540     5.4880     3.1170 h1         1 62S       0.007700
     51 H142        21.7970     4.5050     2.9960 hc         1 62S       0.070200
     52 H141        20.2550     4.1390     3.7160 hc         1 62S       0.070200
     53 H161        22.1340     3.0510     0.7580 hc         1 62S       0.088700
     54 H162        21.9710     1.3330     0.9510 hc         1 62S       0.088700
     55 H181        24.4520     0.3120     1.1850 ha         1 62S       0.177000
     56 H251        30.6000    -0.2830     2.8950 ha         1 62S       0.122000
     57 H271        27.8530     2.9870     2.9570 ha         1 62S       0.146000
     58 H321        21.6210    -0.0470     5.6990 h1         1 62S       0.084700
     59 H362        21.6790    -2.5270     5.3320 hc         1 62S       0.060200
     60 H361        21.4100    -2.2630     3.6180 hc         1 62S       0.060200
     61 H381        19.1970    -1.4920     2.8090 ha         1 62S       0.125500
     62 H391        16.7880    -1.2420     3.2660 ha         1 62S       0.131500
     63 H401        15.9420    -1.3940     5.5830 ha         1 62S       0.128000
     64 H411        17.5270    -1.7750     7.4480 ha         1 62S       0.131500
     65 H421        19.9380    -1.9950     6.9920 ha         1 62S       0.125500
     66 H101        16.6800     6.2960     1.6470 hn         1 62S       0.324800
     67 H1          18.0910     6.8120     1.0650 hn         1 62S       0.324800
     68 H311        21.2920     0.0140     2.7760 hn         1 62S       0.321500
     69 H352        25.1190     0.1670     5.4120 hn         1 62S       0.325500
     70 H351        23.6700     0.7120     6.1630 hn         1 62S       0.325500
     71 H281        25.4180    -1.0820     2.9820 ho         1 62S       0.485000
     72 N35         24.1120     0.1320     5.4700 nt         1 62S      -0.643000
     73 O12         20.5500     6.3120     1.3660 o          1 62S      -0.811000
     74 O13         19.9610     4.0530     0.1800 o          1 62S      -0.811000
     75 O34         23.9020    -1.2640     3.7080 o          1 62S      -0.653100
     76 C07         16.1150     3.8620     2.7800 c3         1 62S      -0.040100
@<TRIPOS>BOND
     1     1    14 1   
     2     1    15 1   
     3     1    21 1   
     4     1    38 1   
     5     2    15 1   
     6     2    16 2   
     7     2    34 1   
     8     3    17 1   
     9     3    18 ar  
    10     3    20 ar  
    11     4    18 ar  
    12     4    19 ar  
    13     4    39 1   
    14     5    19 ar  
    15     5    20 ar  
    16     5    40 1   
    17     6     7 ar  
    18     6    11 ar  
    19     6    76 1   
    20     7     8 ar  
    21     7    41 1   
    22     8     9 ar  
    23     8    42 1   
    24     9    10 ar  
    25     9    43 1   
    26    10    11 ar  
    27    10    44 1   
    28    11    45 1   
    29    12    13 1   
    30    12    48 1   
    31    12    49 1   
    32    12    76 1   
    33    13    31 1   
    34    13    37 1   
    35    13    50 1   
    36    14    37 1   
    37    14    51 1   
    38    14    52 1   
    39    15    53 1   
    40    15    54 1   
    41    16    17 1   
    42    16    55 1   
    43    17    32 2   
    44    18    35 1   
    45    19    56 1   
    46    20    57 1   
    47    21    33 1   
    48    21    36 2   
    49    22    23 1   
    50    22    24 1   
    51    22    33 1   
    52    22    58 1   
    53    23    72 1   
    54    23    75 2   
    55    24    25 1   
    56    24    59 1   
    57    24    60 1   
    58    25    26 ar  
    59    25    30 ar  
    60    26    27 ar  
    61    26    61 1   
    62    27    28 ar  
    63    27    62 1   
    64    28    29 ar  
    65    28    63 1   
    66    29    30 ar  
    67    29    64 1   
    68    30    65 1   
    69    31    66 1   
    70    31    67 1   
    71    32    34 1   
    72    33    68 1   
    73    35    71 1   
    74    37    73 1   
    75    37    74 1   
    76    46    76 1   
    77    47    76 1   
    78    69    72 1   
    79    70    72 1   
@<TRIPOS>SUBSTRUCTURE
     1 62S         1 TEMP              0 ****  ****    0 ROOT
