@<TRIPOS>MOLECULE
62T
   85    89     1     0     0
SMALL
No Charge or Current Charge


@<TRIPOS>ATOM
      1 C1           0.1300     1.8960     0.3430 c6         1 62T       0.111000
      2 C2           1.0500     0.9880    -0.5810 c          1 62T       0.614100
      3 C3           2.1200    -0.9760     0.5620 c6         1 62T       0.090500
      4 C4           3.4640    -1.3840    -0.1070 c6         1 62T       0.166800
      5 C7           5.8440    -4.1060    -3.2660 ca         1 62T      -0.130000
      6 C8           6.1910    -5.1490    -2.3970 ca         1 62T      -0.088000
      7 C9           5.5670    -5.2590    -1.1440 ca         1 62T      -0.191000
      8 C11          4.2680    -5.4490     1.4410 c3         1 62T       0.158600
      9 C12          3.3920    -5.2490     2.7030 c3         1 62T       0.163600
     10 C13          2.3140    -1.7130    -2.2830 c6         1 62T       0.166800
     11 C14          0.9760    -1.2900    -1.6090 c6         1 62T       0.090500
     12 C15         -0.1860     4.4400     0.4670 cc         1 62T       0.103100
     13 C16         -1.1640     4.4420     1.4280 cd         1 62T      -0.308000
     14 C17         -0.5900     6.7240     0.5020 cd         1 62T      -0.361300
     15 C18         -0.5370     8.2000     0.2040 c3         1 62T       0.392300
     16 C19          0.1420     5.7070    -0.0610 cc         1 62T      -0.075000
     17 C20         -1.3980     1.5380     0.0280 c6         1 62T       0.138700
     18 C23         -2.3340     3.0090    -3.5880 c3         1 62T      -0.090100
     19 C25         -3.1760    -1.8160     0.9920 ca         1 62T      -0.152600
     20 C26         -2.9240    -3.2070     1.1670 ca         1 62T      -0.126300
     21 C29         -5.0040    -3.2850     2.4440 ca         1 62T       0.339900
     22 C30         -4.3380    -1.2570     1.5580 ca         1 62T       0.348900
     23 C32         -0.2540     0.4840     2.5650 c6         1 62T      -0.098400
     24 F5          -1.4710    -5.1280     1.1530 f          1 62T      -0.103000
     25 C27         -1.6630    -3.9000     0.6200 c3         1 62T       0.359300
     26 F3          -1.7190    -4.0680    -0.7200 f          1 62T      -0.103000
     27 F4          -0.5440    -3.1930     0.8930 f          1 62T      -0.103000
     28 C28         -3.8780    -3.9360     1.9140 ca         1 62T      -0.124000
     29 N3          -5.2380    -1.9660     2.2750 nb         1 62T      -0.646000
     30 O4          -2.0410    -1.1910    -0.9810 o          1 62T      -0.537100
     31 N2          -1.9180     0.3320     0.7660 n          1 62T      -0.400800
     32 C31         -1.7490     0.4620     2.2330 c6         1 62T       0.098000
     33 C            0.4560     1.6790     1.8760 c6         1 62T      -0.104400
     34 C21         -1.7940     1.6110    -1.4940 c3         1 62T      -0.071400
     35 O3           0.4320     3.2940    -0.0010 os         1 62T      -0.341100
     36 F2           0.3910     8.4990    -0.7340 f          1 62T      -0.107667
     37 F1          -1.7240     8.6570    -0.2530 f          1 62T      -0.107667
     38 F           -0.2300     8.9180     1.3080 f          1 62T      -0.107667
     39 S           -1.7210     6.1000     1.7220 ss         1 62T       0.326000
     40 O            1.7190     1.4880    -1.4820 o          1 62T      -0.562100
     41 N            1.1270    -0.4100    -0.4060 n          1 62T      -0.401800
     42 N1           3.2520    -2.2810    -1.2770 nh         1 62T      -0.767400
     43 C5           4.2290    -3.2550    -1.6310 ca         1 62T       0.233000
     44 C10          4.5830    -4.3190    -0.7490 ca         1 62T       0.136100
     45 O1           3.9430    -4.4260     0.4790 os         1 62T      -0.326100
     46 O2           2.0090    -5.5440     2.4360 oh         1 62T      -0.644000
     47 C6           4.8700    -3.1680    -2.8860 ca         1 62T      -0.121000
     48 H1           1.6860    -1.8660     1.0360 h1         1 62T       0.065950
     49 H2           2.3450    -0.2610     1.3600 h1         1 62T       0.065950
     50 H3           3.9880    -0.4740    -0.4340 h1         1 62T       0.046700
     51 H4           4.1020    -1.8670     0.6470 h1         1 62T       0.046700
     52 H5           6.3300    -4.0220    -4.2350 ha         1 62T       0.115000
     53 H6           6.9460    -5.8750    -2.6940 ha         1 62T       0.112000
     54 H7           5.8560    -6.0810    -0.4970 ha         1 62T       0.115000
     55 H8           5.3240    -5.3770     1.7310 h1         1 62T       0.042200
     56 H9           4.0900    -6.4500     1.0270 h1         1 62T       0.042200
     57 H10          3.7670    -5.9100     3.4950 h1         1 62T       0.026700
     58 H11          3.5030    -4.2150     3.0560 h1         1 62T       0.026700
     59 H12          2.0950    -2.4520    -3.0680 h1         1 62T       0.046700
     60 H13          2.7680    -0.8360    -2.7670 h1         1 62T       0.046700
     61 H14          0.3460    -0.7910    -2.3580 h1         1 62T       0.065950
     62 H15          0.4440    -2.2020    -1.3060 h1         1 62T       0.065950
     63 H16         -1.6050     3.6370     1.9960 h4         1 62T       0.162000
     64 H17          0.8940     5.8320    -0.8350 ha         1 62T       0.157000
     65 H18         -2.0050     2.3440     0.4470 h1         1 62T       0.030700
     66 H19         -0.6830     3.3260    -2.2530 hc         1 62T       0.037200
     67 H20         -2.2530     3.7380    -1.5540 hc         1 62T       0.037200
     68 H21         -1.8090     2.3000    -4.2400 hc         1 62T       0.033700
     69 H22         -3.3950     2.7330    -3.5580 hc         1 62T       0.033700
     70 H23         -2.2520     4.0080    -4.0320 hc         1 62T       0.033700
     71 H24         -5.7420    -3.8390     3.0230 h4         1 62T       0.029100
     72 H25         -4.5670    -0.2010     1.4230 h4         1 62T       0.030100
     73 H26         -0.1210     0.5560     3.6530 hc         1 62T       0.063200
     74 H27          0.1870    -0.4740     2.2720 hc         1 62T       0.063200
     75 H28         -3.7620    -5.0010     2.0970 ha         1 62T       0.143000
     76 H29         -2.2130    -0.3710     2.7770 h1         1 62T       0.052200
     77 H30         -2.2290     1.3870     2.5820 h1         1 62T       0.052200
     78 H31          1.5410     1.5950     2.0100 hc         1 62T       0.058200
     79 H32          0.2110     2.5720     2.4570 hc         1 62T       0.058200
     80 H33         -1.1920     0.9170    -2.0900 hc         1 62T       0.070700
     81 H34         -2.8320     1.2690    -1.5890 hc         1 62T       0.070700
     82 H35          1.5160    -5.3790     3.2690 ho         1 62T       0.442000
     83 H36          4.6240    -2.3600    -3.5680 ha         1 62T       0.117000
     84 C22         -1.7260     3.0010    -2.1720 c3         1 62T      -0.074400
     85 C24         -2.3020    -0.9040     0.1760 c          1 62T       0.631700
@<TRIPOS>BOND
     1     1     2 1   
     2     1    17 1   
     3     1    33 1   
     4     1    35 1   
     5     2    40 2   
     6     2    41 1   
     7     3     4 1   
     8     3    41 1   
     9     3    48 1   
    10     3    49 1   
    11     4    42 1   
    12     4    50 1   
    13     4    51 1   
    14     5     6 ar  
    15     5    47 ar  
    16     5    52 1   
    17     6     7 ar  
    18     6    53 1   
    19     7    44 ar  
    20     7    54 1   
    21     8     9 1   
    22     8    45 1   
    23     8    55 1   
    24     8    56 1   
    25     9    46 1   
    26     9    57 1   
    27     9    58 1   
    28    10    11 1   
    29    10    42 1   
    30    10    59 1   
    31    10    60 1   
    32    11    41 1   
    33    11    61 1   
    34    11    62 1   
    35    12    13 2   
    36    12    16 1   
    37    12    35 1   
    38    13    39 1   
    39    13    63 1   
    40    14    15 1   
    41    14    16 2   
    42    14    39 1   
    43    15    36 1   
    44    15    37 1   
    45    15    38 1   
    46    16    64 1   
    47    17    31 1   
    48    17    34 1   
    49    17    65 1   
    50    18    68 1   
    51    18    69 1   
    52    18    70 1   
    53    18    84 1   
    54    19    20 ar  
    55    19    22 ar  
    56    19    85 1   
    57    20    25 1   
    58    20    28 ar  
    59    21    28 ar  
    60    21    29 ar  
    61    21    71 1   
    62    22    29 ar  
    63    22    72 1   
    64    23    32 1   
    65    23    33 1   
    66    23    73 1   
    67    23    74 1   
    68    24    25 1   
    69    25    26 1   
    70    25    27 1   
    71    28    75 1   
    72    30    85 2   
    73    31    32 1   
    74    31    85 1   
    75    32    76 1   
    76    32    77 1   
    77    33    78 1   
    78    33    79 1   
    79    34    80 1   
    80    34    81 1   
    81    34    84 1   
    82    42    43 1   
    83    43    44 ar  
    84    43    47 ar  
    85    44    45 1   
    86    46    82 1   
    87    47    83 1   
    88    66    84 1   
    89    67    84 1   
@<TRIPOS>SUBSTRUCTURE
     1 62T         1 TEMP              0 ****  ****    0 ROOT
