@<TRIPOS>MOLECULE
62T
   85    89     1     0     0
SMALL
bcc


@<TRIPOS>ATOM
      1 C1          -0.7690     0.3990     0.3550 c6         1 62T       0.087800
      2 C2          -0.3970    -1.0020    -0.1870 c          1 62T       0.681100
      3 C3           1.9110    -1.0140     0.8700 c6         1 62T       0.090500
      4 C4           3.0480    -0.9180    -0.1340 c6         1 62T       0.166800
      5 C7           5.8720    -2.6620    -3.3920 ca         1 62T      -0.148000
      6 C8           7.0450    -2.5740    -2.6660 ca         1 62T      -0.106000
      7 C9           6.9990    -2.3770    -1.2880 ca         1 62T      -0.209000
      8 C11          6.8100    -1.9480     1.4890 c3         1 62T       0.135400
      9 C12          6.3840    -1.7100     2.9130 c3         1 62T       0.140400
     10 C13          2.1900    -2.8370    -1.2930 c6         1 62T       0.166800
     11 C14          1.0660    -2.9270    -0.2730 c6         1 62T       0.090500
     12 C15          0.6810     2.3680     0.5320 cc         1 62T       0.103100
     13 C16         -0.0950     3.3800     1.0240 cd         1 62T      -0.181100
     14 C17          2.3000     3.8120     1.3140 cd         1 62T      -0.216400
     15 C18          3.6180     4.4200     1.6140 c3         1 62T       0.756200
     16 C19          2.0710     2.6230     0.6950 cc         1 62T      -0.093000
     17 C20         -2.1240     0.9010    -0.2420 c6         1 62T       0.138700
     18 C23         -1.8600     3.0110    -3.5240 c3         1 62T      -0.090100
     19 C25         -5.2680    -1.2750     0.0670 ca         1 62T      -0.217900
     20 C26         -5.5380    -2.6290     0.2410 ca         1 62T      -0.126300
     21 C29         -7.7520    -2.0250     0.8930 ca         1 62T       0.405200
     22 C30         -6.3000    -0.3770     0.3270 ca         1 62T       0.414200
     23 C32         -2.0930    -0.4740     2.3120 c6         1 62T      -0.098400
     24 F5          -4.7610    -4.8160     0.6170 f          1 62T      -0.224300
     25 C27         -4.4950    -3.6770    -0.0300 c3         1 62T       0.723200
     26 F3          -4.4250    -3.9750    -1.3300 f          1 62T      -0.224300
     27 F4          -3.2820    -3.2800     0.3590 f          1 62T      -0.224300
     28 C28         -6.8010    -3.0080     0.6680 ca         1 62T      -0.207300
     29 N3          -7.5110    -0.7330     0.7250 nb         1 62T      -0.646000
     30 O4          -3.8580    -0.9710    -1.7500 o          1 62T      -0.537100
     31 N2          -3.2310     0.0450     0.2140 n          1 62T      -0.467800
     32 C31         -3.3640     0.0470     1.6660 c6         1 62T       0.098000
     33 C           -0.8960     0.3600     1.8830 c6         1 62T      -0.104400
     34 C21         -2.1470     1.2710    -1.7330 c3         1 62T      -0.071400
     35 O3           0.2890     1.2450    -0.1080 os         1 62T      -0.317900
     36 F2           4.5070     3.5030     2.0050 f          1 62T      -0.228967
     37 F1           4.1470     5.0390     0.5500 f          1 62T      -0.228967
     38 F            3.5160     5.3350     2.5840 f          1 62T      -0.228967
     39 S            0.8480     4.6290     1.7080 ss         1 62T       0.036200
     40 O           -1.1610    -1.5680    -0.9460 o          1 62T      -0.562100
     41 N            0.7390    -1.6050     0.2450 n          1 62T      -0.468800
     42 N1           3.3540    -2.2350    -0.6730 nh         1 62T      -0.629000
     43 C5           4.5730    -2.3360    -1.3670 ca         1 62T       0.094600
     44 C10          5.7780    -2.2740    -0.6330 ca         1 62T       0.136100
     45 O1           5.6500    -2.1280     0.6990 os         1 62T      -0.302900
     46 O2           5.7770    -2.8720     3.4240 oh         1 62T      -0.581800
     47 C6           4.6490    -2.5340    -2.7410 ca         1 62T      -0.139000
     48 H1           2.2200    -1.6600     1.6970 h1         1 62T       0.065950
     49 H2           1.7140    -0.0390     1.2960 h1         1 62T       0.065950
     50 H3           2.7650    -0.2200    -0.9370 h1         1 62T       0.046700
     51 H4           3.9220    -0.5070     0.3670 h1         1 62T       0.046700
     52 H5           5.8970    -2.8170    -4.4620 ha         1 62T       0.133000
     53 H6           8.0050    -2.6650    -3.1570 ha         1 62T       0.130000
     54 H7           7.9270    -2.3290    -0.7350 ha         1 62T       0.133000
     55 H8           7.3850    -1.0810     1.1460 h1         1 62T       0.042200
     56 H9           7.4650    -2.8260     1.4270 h1         1 62T       0.042200
     57 H10          7.2850    -1.4340     3.4770 h1         1 62T       0.026700
     58 H11          5.7100    -0.8440     2.9470 h1         1 62T       0.026700
     59 H12          2.4430    -3.8430    -1.6330 h1         1 62T       0.046700
     60 H13          1.8310    -2.2720    -2.1670 h1         1 62T       0.046700
     61 H14          0.1880    -3.3850    -0.7180 h1         1 62T       0.065950
     62 H15          1.3860    -3.5490     0.5670 h1         1 62T       0.065950
     63 H16         -1.1690     3.4690     1.0320 h4         1 62T       0.180000
     64 H17          2.8500     1.9540     0.3560 ha         1 62T       0.175000
     65 H18         -2.3190     1.8460     0.2850 h1         1 62T       0.030700
     66 H19         -0.5000     2.6910    -1.9040 hc         1 62T       0.037200
     67 H20         -2.0230     3.4050    -1.4220 hc         1 62T       0.037200
     68 H21         -1.4210     2.2820    -4.2080 hc         1 62T       0.033700
     69 H22         -2.9330     3.0450    -3.7230 hc         1 62T       0.033700
     70 H23         -1.4450     3.9880    -3.7750 hc         1 62T       0.033700
     71 H24         -8.7450    -2.3010     1.2240 h4         1 62T       0.029100
     72 H25         -6.1240     0.6870     0.2010 h4         1 62T       0.030100
     73 H26         -2.1950    -0.4170     3.3970 hc         1 62T       0.063200
     74 H27         -1.9550    -1.5280     2.0620 hc         1 62T       0.063200
     75 H28         -7.0640    -4.0430     0.8310 ha         1 62T       0.161000
     76 H29         -4.2080    -0.5610     1.9760 h1         1 62T       0.052200
     77 H30         -3.5630     1.0690     2.0050 h1         1 62T       0.052200
     78 H31          0.0110    -0.0130     2.3570 hc         1 62T       0.058200
     79 H32         -1.0400     1.3750     2.2620 hc         1 62T       0.058200
     80 H33         -1.6700     0.5060    -2.3420 hc         1 62T       0.070700
     81 H34         -3.1920     1.2980    -2.0420 hc         1 62T       0.070700
     82 H35          5.4610    -2.6790     4.3110 ho         1 62T       0.403000
     83 H36          3.7400    -2.5890    -3.3260 ha         1 62T       0.135000
     84 C22         -1.5750     2.6470    -2.0720 c3         1 62T      -0.074400
     85 C24         -4.0070    -0.7370    -0.5660 c          1 62T       0.698700
@<TRIPOS>BOND
     1     1     2 1   
     2     1    17 1   
     3     1    33 1   
     4     1    35 1   
     5     2    40 2   
     6     2    41 1   
     7     3     4 1   
     8     3    41 1   
     9     3    48 1   
    10     3    49 1   
    11     4    42 1   
    12     4    50 1   
    13     4    51 1   
    14     5     6 ar  
    15     5    47 ar  
    16     5    52 1   
    17     6     7 ar  
    18     6    53 1   
    19     7    44 ar  
    20     7    54 1   
    21     8     9 1   
    22     8    45 1   
    23     8    55 1   
    24     8    56 1   
    25     9    46 1   
    26     9    57 1   
    27     9    58 1   
    28    10    11 1   
    29    10    42 1   
    30    10    59 1   
    31    10    60 1   
    32    11    41 1   
    33    11    61 1   
    34    11    62 1   
    35    12    13 2   
    36    12    16 1   
    37    12    35 1   
    38    13    39 1   
    39    13    63 1   
    40    14    15 1   
    41    14    16 2   
    42    14    39 1   
    43    15    36 1   
    44    15    37 1   
    45    15    38 1   
    46    16    64 1   
    47    17    31 1   
    48    17    34 1   
    49    17    65 1   
    50    18    68 1   
    51    18    69 1   
    52    18    70 1   
    53    18    84 1   
    54    19    20 ar  
    55    19    22 ar  
    56    19    85 1   
    57    20    25 1   
    58    20    28 ar  
    59    21    28 ar  
    60    21    29 ar  
    61    21    71 1   
    62    22    29 ar  
    63    22    72 1   
    64    23    32 1   
    65    23    33 1   
    66    23    73 1   
    67    23    74 1   
    68    24    25 1   
    69    25    26 1   
    70    25    27 1   
    71    28    75 1   
    72    30    85 2   
    73    31    32 1   
    74    31    85 1   
    75    32    76 1   
    76    32    77 1   
    77    33    78 1   
    78    33    79 1   
    79    34    80 1   
    80    34    81 1   
    81    34    84 1   
    82    42    43 1   
    83    43    44 ar  
    84    43    47 ar  
    85    44    45 1   
    86    46    82 1   
    87    47    83 1   
    88    66    84 1   
    89    67    84 1   
@<TRIPOS>SUBSTRUCTURE
     1 62T         1 TEMP              0 ****  ****    0 ROOT
