@<TRIPOS>MOLECULE
62V
   35    38     1     0     0
SMALL
bcc


@<TRIPOS>ATOM
      1 CAQ         -2.4200     1.1440     1.0070 ca         1 62V      -0.086500
      2 CAR         -3.7490     1.1170     0.6200 ca         1 62V      -0.131000
      3 CAS         -4.1280     0.2990    -0.4340 ca         1 62V       0.040400
      4 CLAV        -5.7870     0.2630    -0.9290 cl         1 62V      -0.108400
      5 CAT         -3.2030    -0.4920    -1.0960 ca         1 62V      -0.131000
      6 CAU         -1.8790    -0.4680    -0.6850 ca         1 62V      -0.086500
      7 CAP         -1.4700     0.3500     0.3660 ca         1 62V      -0.142900
      8 CAG         -0.0410     0.4290     0.7700 ce         1 62V       0.540500
      9 NAH          0.3760     1.5810     1.1170 n2         1 62V      -0.578900
     10 CAI          1.7520     1.7540     1.5400 c3         1 62V       0.070500
     11 CAJ          2.6350     1.4430     0.3910 cc         1 62V       0.294000
     12 OAL          3.4120     2.3470    -0.1890 os         1 62V      -0.095100
     13 NAM          4.0650     1.7660    -1.2430 nc         1 62V      -0.361300
     14 CAN          3.6820     0.5220    -1.2870 cd         1 62V       0.366600
     15 CAO          4.2040    -0.3960    -2.3330 c3         1 62V      -0.134400
     16 CAK          2.7400     0.2530    -0.2490 cd         1 62V      -0.321600
     17 CAF          2.0220    -0.9420     0.1600 ca         1 62V       0.036000
     18 CAE          0.7300    -0.8420     0.7150 ca         1 62V      -0.187900
     19 CAD          0.1010    -2.0040     1.1740 ca         1 62V      -0.097000
     20 CAC          0.7160    -3.2380     1.0850 ca         1 62V      -0.135000
     21 CAB          1.9720    -3.3380     0.4980 ca         1 62V      -0.109000
     22 CAA          2.6140    -2.2010     0.0430 ca         1 62V      -0.127000
     23 H1          -2.1200     1.7790     1.8290 ha         1 62V       0.147000
     24 H2          -4.4790     1.7270     1.1340 ha         1 62V       0.150000
     25 H3          -3.5040    -1.1200    -1.9230 ha         1 62V       0.150000
     26 H4          -1.1630    -1.0880    -1.2090 ha         1 62V       0.147000
     27 H5           1.8950     2.7760     1.8860 h1         1 62V       0.081200
     28 H6           2.0060     1.0840     2.3720 h1         1 62V       0.081200
     29 H7           4.8850    -1.1310    -1.9030 hc         1 62V       0.058700
     30 H8           3.3900    -0.9420    -2.8080 hc         1 62V       0.058700
     31 H9           4.7450     0.1580    -3.0980 hc         1 62V       0.058700
     32 H10         -0.8870    -1.9360     1.6110 ha         1 62V       0.141000
     33 H11          0.2150    -4.1200     1.4600 ha         1 62V       0.138000
     34 H12          2.4570    -4.3010     0.4060 ha         1 62V       0.136000
     35 H13          3.6040    -2.2880    -0.3840 ha         1 62V       0.137000
@<TRIPOS>BOND
     1     1     2 ar  
     2     1     7 ar  
     3     1    23 1   
     4     2     3 ar  
     5     2    24 1   
     6     3     4 1   
     7     3     5 ar  
     8     5     6 ar  
     9     5    25 1   
    10     6     7 ar  
    11     6    26 1   
    12     7     8 1   
    13     8     9 2   
    14     8    18 1   
    15     9    10 1   
    16    10    11 1   
    17    10    27 1   
    18    10    28 1   
    19    11    12 1   
    20    11    16 2   
    21    12    13 1   
    22    13    14 2   
    23    14    15 1   
    24    14    16 1   
    25    15    29 1   
    26    15    30 1   
    27    15    31 1   
    28    16    17 1   
    29    17    18 ar  
    30    17    22 ar  
    31    18    19 ar  
    32    19    20 ar  
    33    19    32 1   
    34    20    21 ar  
    35    20    33 1   
    36    21    22 ar  
    37    21    34 1   
    38    22    35 1   
@<TRIPOS>SUBSTRUCTURE
     1 62V         1 TEMP              0 ****  ****    0 ROOT
