@<TRIPOS>MOLECULE
62V
   35    38     1     0     0
SMALL
No Charge or Current Charge


@<TRIPOS>ATOM
      1 CAQ         -2.4180     1.2330     0.9660 ca         1 62V      -0.068500
      2 CAR         -3.7210     1.2510     0.4370 ca         1 62V      -0.113000
      3 CAS         -4.0630     0.3950    -0.6200 ca         1 62V       0.132000
      4 ClAV        -5.6920     0.4210    -1.2820 cl         1 62V      -0.200000
      5 CAT         -3.1020    -0.4760    -1.1550 ca         1 62V      -0.113000
      6 CAU         -1.7990    -0.4970    -0.6280 ca         1 62V      -0.068500
      7 CAP         -1.4440     0.3420     0.4540 ca         1 62V      -0.142900
      8 CAG         -0.0370     0.3430     0.9870 ce         1 62V       0.540500
      9 NAH          0.3850     1.3770     1.6570 n2         1 62V      -0.578900
     10 CAI          1.7950     1.8040     1.6930 c3         1 62V       0.070500
     11 CAJ          2.5260     1.4690     0.4210 cc         1 62V       0.184300
     12 OAL          3.2640     2.4250    -0.2280 os         1 62V      -0.050700
     13 NAM          3.9140     1.8050    -1.3540 nc         1 62V      -0.361300
     14 CAN          3.5470     0.5360    -1.2890 cd         1 62V       0.301300
     15 CAO          3.9910    -0.4170    -2.3660 c3         1 62V      -0.134400
     16 CAK          2.7100     0.2660    -0.1780 cd         1 62V      -0.191000
     17 CAF          2.0300    -0.9740     0.2250 ca         1 62V       0.036000
     18 CAE          0.7590    -0.9280     0.8560 ca         1 62V      -0.187900
     19 CAD          0.1580    -2.1340     1.2830 ca         1 62V      -0.079000
     20 CAC          0.7950    -3.3670     1.0780 ca         1 62V      -0.117000
     21 CAB          2.0390    -3.4120     0.4360 ca         1 62V      -0.091000
     22 CAA          2.6500    -2.2220     0.0120 ca         1 62V      -0.109000
     23 H1          -2.1750     1.9080     1.7840 ha         1 62V       0.129000
     24 H2          -4.4640     1.9310     0.8440 ha         1 62V       0.132000
     25 H3          -3.3650    -1.1290    -1.9830 ha         1 62V       0.132000
     26 H4          -1.0650    -1.1670    -1.0730 ha         1 62V       0.129000
     27 H5           1.8610     2.8880     1.8570 h1         1 62V       0.081200
     28 H6           2.3210     1.3210     2.5270 h1         1 62V       0.081200
     29 H7           4.8750    -0.9810    -2.0480 hc         1 62V       0.058700
     30 H8           3.1970    -1.1300    -2.6130 hc         1 62V       0.058700
     31 H9           4.2500     0.1160    -3.2890 hc         1 62V       0.058700
     32 H10         -0.8190    -2.1160     1.7630 ha         1 62V       0.123000
     33 H11          0.3190    -4.2870     1.4100 ha         1 62V       0.120000
     34 H12          2.5350    -4.3670     0.2770 ha         1 62V       0.118000
     35 H13          3.6320    -2.2790    -0.4470 ha         1 62V       0.119000
@<TRIPOS>BOND
     1     1     2 ar  
     2     1     7 ar  
     3     1    23 1   
     4     2     3 ar  
     5     2    24 1   
     6     3     4 1   
     7     3     5 ar  
     8     5     6 ar  
     9     5    25 1   
    10     6     7 ar  
    11     6    26 1   
    12     7     8 1   
    13     8     9 2   
    14     8    18 1   
    15     9    10 1   
    16    10    11 1   
    17    10    27 1   
    18    10    28 1   
    19    11    12 1   
    20    11    16 2   
    21    12    13 1   
    22    13    14 2   
    23    14    15 1   
    24    14    16 1   
    25    15    29 1   
    26    15    30 1   
    27    15    31 1   
    28    16    17 1   
    29    17    18 ar  
    30    17    22 ar  
    31    18    19 ar  
    32    19    20 ar  
    33    19    32 1   
    34    20    21 ar  
    35    20    33 1   
    36    21    22 ar  
    37    21    34 1   
    38    22    35 1   
@<TRIPOS>SUBSTRUCTURE
     1 62V         1 TEMP              0 ****  ****    0 ROOT
