@<TRIPOS>MOLECULE
62W
   26    25     1     0     0
SMALL
bcc


@<TRIPOS>ATOM
      1 OAA         -4.3740    -0.1790     0.0910 oh         1 62W      -0.598300
      2 CAG         -3.1780     0.4340     0.5140 c3         1 62W       0.099400
      3 CAI         -2.0010    -0.3090    -0.1000 c3         1 62W       0.114600
      4 OAC         -1.9940    -1.6690     0.2770 oh         1 62W      -0.588800
      5 CAK         -0.6690     0.3790     0.2530 c3         1 62W       0.106600
      6 OAE         -0.6720     1.7260    -0.1610 oh         1 62W      -0.587800
      7 CAL          0.5400    -0.3960    -0.2830 c3         1 62W       0.106600
      8 OAF          0.5170    -0.4830    -1.6900 oh         1 62W      -0.587800
      9 CAJ          1.8750     0.1820     0.2020 c3         1 62W       0.114600
     10 OAD          2.2110     1.2810    -0.6180 oh         1 62W      -0.588800
     11 CAH          2.9620    -0.8820     0.1450 c3         1 62W       0.099400
     12 OAB          4.1890    -0.2600     0.4640 oh         1 62W      -0.598300
     13 H1          -5.1060     0.3640     0.3940 ho         1 62W       0.409500
     14 H2          -3.1350     1.4850     0.2130 h1         1 62W       0.032950
     15 H3          -3.0790     0.4140     1.6110 h1         1 62W       0.032950
     16 H4          -2.1180    -0.3070    -1.1900 h1         1 62W       0.078200
     17 H5          -1.9550    -1.7230     1.2380 ho         1 62W       0.412000
     18 H6          -0.5770     0.4020     1.3470 h1         1 62W       0.072700
     19 H7          -0.7270     1.7500    -1.1220 ho         1 62W       0.416000
     20 H8           0.4640    -1.4150     0.1100 h1         1 62W       0.072700
     21 H9           1.0460     0.2510    -2.0280 ho         1 62W       0.416000
     22 H10          1.7620     0.4980     1.2500 h1         1 62W       0.078200
     23 H11          3.1690     1.3870    -0.5840 ho         1 62W       0.412000
     24 H12          2.7150    -1.6800     0.8550 h1         1 62W       0.032950
     25 H13          2.9900    -1.3280    -0.8560 h1         1 62W       0.032950
     26 H14          4.9080    -0.8220     0.1610 ho         1 62W       0.409500
@<TRIPOS>BOND
     1     1     2 1   
     2     1    13 1   
     3     2     3 1   
     4     2    14 1   
     5     2    15 1   
     6     3     4 1   
     7     3     5 1   
     8     3    16 1   
     9     4    17 1   
    10     5     6 1   
    11     5     7 1   
    12     5    18 1   
    13     6    19 1   
    14     7     8 1   
    15     7     9 1   
    16     7    20 1   
    17     8    21 1   
    18     9    10 1   
    19     9    11 1   
    20     9    22 1   
    21    10    23 1   
    22    11    12 1   
    23    11    24 1   
    24    11    25 1   
    25    12    26 1   
@<TRIPOS>SUBSTRUCTURE
     1 62W         1 TEMP              0 ****  ****    0 ROOT
