@<TRIPOS>MOLECULE
62W
   26    25     1     0     0
SMALL
No Charge or Current Charge


@<TRIPOS>ATOM
      1 OAA         -4.4640    -0.2640     0.4970 oh         1 62W      -0.720500
      2 CAG         -3.2540     0.5240     0.5140 c3         1 62W       0.122600
      3 CAI         -2.0620    -0.3480     0.0390 c3         1 62W       0.137800
      4 OAC         -2.1690    -1.6010     0.7350 oh         1 62W      -0.711000
      5 CAK         -0.6700     0.3140     0.2930 c3         1 62W       0.129800
      6 OAE         -0.6010     1.6170    -0.3250 oh         1 62W      -0.710000
      7 CAL          0.5400    -0.5520    -0.2020 c3         1 62W       0.129800
      8 OAF          0.4750    -0.7490    -1.6330 oh         1 62W      -0.710000
      9 CAJ          1.9070     0.1100     0.1570 c3         1 62W       0.137800
     10 OAD          2.0700     1.3380    -0.5830 oh         1 62W      -0.711000
     11 CAH          3.1380    -0.7870    -0.1370 c3         1 62W       0.122600
     12 OAB          4.3430    -0.0230     0.0630 oh         1 62W      -0.720500
     13 H1          -5.2130     0.3490     0.6950 ho         1 62W       0.508500
     14 H2          -3.3520     1.3950    -0.1490 h1         1 62W       0.032950
     15 H3          -3.0540     0.8960     1.5290 h1         1 62W       0.032950
     16 H4          -2.1750    -0.5090    -1.0430 h1         1 62W       0.078200
     17 H5          -3.1470    -1.6750     0.8800 ho         1 62W       0.511000
     18 H6          -0.5610     0.4260     1.3820 h1         1 62W       0.072700
     19 H7           0.3750     1.7710    -0.4670 ho         1 62W       0.515000
     20 H8           0.4900    -1.5220     0.3130 h1         1 62W       0.072700
     21 H9           0.8730     0.0630    -2.0250 ho         1 62W       0.515000
     22 H10          1.9090     0.3190     1.2370 h1         1 62W       0.078200
     23 H11          3.0530     1.4660    -0.5920 ho         1 62W       0.511000
     24 H12          3.1160    -1.6570     0.5340 h1         1 62W       0.032950
     25 H13          3.0910    -1.1600    -1.1690 h1         1 62W       0.032950
     26 H14          5.1040    -0.6430    -0.0480 ho         1 62W       0.508500
@<TRIPOS>BOND
     1     1     2 1   
     2     1    13 1   
     3     2     3 1   
     4     2    14 1   
     5     2    15 1   
     6     3     4 1   
     7     3     5 1   
     8     3    16 1   
     9     4    17 1   
    10     5     6 1   
    11     5     7 1   
    12     5    18 1   
    13     6    19 1   
    14     7     8 1   
    15     7     9 1   
    16     7    20 1   
    17     8    21 1   
    18     9    10 1   
    19     9    11 1   
    20     9    22 1   
    21    10    23 1   
    22    11    12 1   
    23    11    24 1   
    24    11    25 1   
    25    12    26 1   
@<TRIPOS>SUBSTRUCTURE
     1 62W         1 TEMP              0 ****  ****    0 ROOT
