@<TRIPOS>MOLECULE
62X
   63    65     1     0     0
SMALL
No Charge or Current Charge


@<TRIPOS>ATOM
      1 C4          -3.9790     2.8900     1.0760 c3         1 62X       0.165800
      2 C5          -3.3270     1.5140     0.8220 c3         1 62X      -0.083400
      3 C6          -2.7990     1.3780    -0.6230 c3         1 62X       0.187800
      4 C8          -2.6950    -1.1030    -0.6830 c3         1 62X       0.178800
      5 C10         -2.6610    -3.6970    -0.4660 c3         1 62X       0.011500
      6 C15         -1.2590     0.2480    -2.2150 c3         1 62X       0.172800
      7 C21          0.5990     1.3560    -3.7050 c5         1 62X       0.101300
      8 C24          1.6390    -0.8040    -0.1540 cc         1 62X       0.442700
      9 C26          2.8140    -0.1780     1.5370 ca         1 62X      -0.089600
     10 C1          -3.7160     2.9000     3.5490 c3         1 62X       0.151600
     11 N2          -4.6400     3.0380     2.3970 n3         1 62X      -0.707600
     12 C3          -5.4390     4.2810     2.4810 c3         1 62X       0.151600
     13 N7          -1.9510     0.1800    -0.8860 n3         1 62X      -0.733600
     14 C9          -1.8450    -2.4000    -0.7190 c3         1 62X      -0.055400
     15 N11         -3.2250    -3.7230     0.9340 n8         1 62X      -1.001200
     16 C12         -1.8140    -4.9660    -0.8970 c          1 62X       0.696000
     17 O13         -0.9410    -5.3700    -0.1390 o          1 62X      -0.735500
     18 O14         -2.1420    -5.5620    -1.9140 o          1 62X      -0.735500
     19 C16         -0.4170     1.5350    -2.5310 c5         1 62X       0.168300
     20 O17          0.4180     1.9240    -1.4090 os         1 62X      -0.423000
     21 C18          1.7270     1.3300    -1.5550 c5         1 62X       0.318300
     22 C19          1.7600     0.6270    -2.9670 c5         1 62X       0.075300
     23 O20          3.0030     0.7970    -3.6830 oh         1 62X      -0.698000
     24 O22          1.0730     2.5950    -4.2460 oh         1 62X      -0.713000
     25 N23          2.0270     0.5230    -0.3720 na         1 62X      -0.290300
     26 N25          2.1170    -1.2710     1.0160 nd         1 62X      -0.525100
     27 C27          3.5290    -0.0630     2.7480 ca         1 62X       0.443900
     28 N28          3.6410    -1.0850     3.6380 nv         1 62X      -1.069900
     29 N29          4.1530     1.0770     3.0800 nb         1 62X      -0.320000
     30 C30          4.0460     2.0950     2.1920 ca         1 62X       0.161900
     31 N31          3.3810     2.0740     1.0110 nb         1 62X      -0.221000
     32 C32          2.7670     0.9130     0.7070 ca         1 62X       0.120500
     33 H1          -3.2140     3.6690     0.9530 h1         1 62X       0.021200
     34 H2          -2.4900     1.3660     1.5130 hc         1 62X       0.063700
     35 H3          -3.6530     1.3890    -1.3140 h1         1 62X       0.014200
     36 H4          -2.2200     2.2880    -0.8200 h1         1 62X       0.014200
     37 H5          -3.1920    -1.0870     0.2940 h1         1 62X       0.031700
     38 H6          -3.4880    -1.1890    -1.4390 h1         1 62X       0.031700
     39 H7          -3.5240    -3.6670    -1.1450 h1         1 62X       0.033700
     40 H8          -0.5860    -0.6090    -2.3160 h1         1 62X       0.036700
     41 H9          -2.0040     0.1450    -3.0160 h1         1 62X       0.036700
     42 H10          0.1790     0.7300    -4.5060 h1         1 62X       0.047700
     43 H11          1.0360    -1.3610    -0.8600 h5         1 62X       0.112800
     44 H12         -2.9210     3.6570     3.5060 h1         1 62X       0.026700
     45 H13         -4.2580     3.0250     4.4960 h1         1 62X       0.026700
     46 H14         -3.2490     1.9070     3.5680 h1         1 62X       0.026700
     47 H15         -6.1760     4.3240     1.6690 h1         1 62X       0.026700
     48 H16         -5.9840     4.3290     3.4340 h1         1 62X       0.026700
     49 H17         -4.7940     5.1670     2.4080 h1         1 62X       0.026700
     50 H19         -1.3750    -2.4980    -1.7030 hc         1 62X       0.044200
     51 H20         -1.0360    -2.3260     0.0170 hc         1 62X       0.044200
     52 H21         -3.8070    -4.5630     1.0440 hn         1 62X       0.384000
     53 H22         -2.4510    -3.8910     1.5890 hn         1 62X       0.384000
     54 H25         -1.1180     2.3520    -2.7460 h1         1 62X       0.077700
     55 H26          2.4670     2.1410    -1.5520 h2         1 62X       0.103700
     56 H27          1.5260    -0.4430    -2.8770 h1         1 62X       0.069700
     57 H28          3.6600     0.1640    -3.3060 ho         1 62X       0.507000
     58 H29          2.0380     2.4190    -4.3840 ho         1 62X       0.514000
     59 H30          3.3720    -2.0100     3.3090 hn         1 62X       0.503500
     60 H31          4.3890    -1.0450     4.3240 hn         1 62X       0.503500
     61 H32          4.5470     3.0260     2.4520 h5         1 62X       0.030100
     62 H33         -4.7260     3.0500     0.2860 h1         1 62X       0.021200
     63 H34         -4.0710     0.7370     1.0260 hc         1 62X       0.063700
@<TRIPOS>BOND
     1     1     2 1   
     2     1    11 1   
     3     1    33 1   
     4     1    62 1   
     5     2     3 1   
     6     2    34 1   
     7     2    63 1   
     8     3    13 1   
     9     3    35 1   
    10     3    36 1   
    11     4    13 1   
    12     4    14 1   
    13     4    37 1   
    14     4    38 1   
    15     5    14 1   
    16     5    15 1   
    17     5    16 1   
    18     5    39 1   
    19     6    13 1   
    20     6    19 1   
    21     6    40 1   
    22     6    41 1   
    23     7    19 1   
    24     7    22 1   
    25     7    24 1   
    26     7    42 1   
    27     8    25 1   
    28     8    26 2   
    29     8    43 1   
    30     9    26 1   
    31     9    27 ar  
    32     9    32 ar  
    33    10    11 1   
    34    10    44 1   
    35    10    45 1   
    36    10    46 1   
    37    11    12 1   
    38    12    47 1   
    39    12    48 1   
    40    12    49 1   
    41    14    50 1   
    42    14    51 1   
    43    15    52 1   
    44    15    53 1   
    45    16    17 1   
    46    16    18 1   
    47    19    20 1   
    48    19    54 1   
    49    20    21 1   
    50    21    22 1   
    51    21    25 1   
    52    21    55 1   
    53    22    23 1   
    54    22    56 1   
    55    23    57 1   
    56    24    58 1   
    57    25    32 1   
    58    27    28 1   
    59    27    29 ar  
    60    28    59 1   
    61    28    60 1   
    62    29    30 ar  
    63    30    31 ar  
    64    30    61 1   
    65    31    32 ar  
@<TRIPOS>SUBSTRUCTURE
     1 62X         1 TEMP              0 ****  ****    0 ROOT
