@<TRIPOS>MOLECULE
62X
   63    65     1     0     0
SMALL
abcg2


@<TRIPOS>ATOM
      1 C4          -4.9440     2.9240     0.6850 c3         1 62X       0.165800
      2 C5          -3.8570     1.8580     0.6830 c3         1 62X      -0.083400
      3 C6          -3.3910     1.5510    -0.7340 c3         1 62X       0.187800
      4 C8          -2.8530    -0.8120    -0.5920 c3         1 62X       0.178800
      5 C10         -2.2080    -3.2100     0.0120 c3         1 62X       0.011500
      6 C15         -1.5050     0.6770    -1.9480 c3         1 62X       0.172800
      7 C21          0.6070     1.7280    -2.8870 c5         1 62X       0.101300
      8 C24          2.0530    -1.4430    -0.2070 cc         1 62X       0.442700
      9 C26          3.7900    -1.2600     0.9820 ca         1 62X      -0.089600
     10 C1          -4.6270     3.6800     2.9530 c3         1 62X       0.151600
     11 N2          -5.5560     3.1370     1.9850 n3         1 62X      -0.707600
     12 C3          -6.7220     3.9860     1.8690 c3         1 62X       0.151600
     13 N7          -2.3520     0.5380    -0.7810 n3         1 62X      -0.733600
     14 C9          -1.7600    -1.7580    -0.1210 c3         1 62X      -0.055400
     15 N11         -3.2810    -3.3140     0.9900 n8         1 62X      -1.001200
     16 C12         -0.9740    -4.1150     0.2660 c          1 62X       0.696000
     17 O13         -0.9590    -4.7990     1.3070 o          1 62X      -0.735500
     18 O14         -0.0860    -4.0850    -0.6140 o          1 62X      -0.735500
     19 C16         -0.3280     1.6020    -1.6840 c5         1 62X       0.168300
     20 O17          0.4680     1.0880    -0.6060 os         1 62X      -0.423000
     21 C18          1.7930     0.9390    -1.0270 c5         1 62X       0.318300
     22 C19          1.7010     0.7170    -2.5310 c5         1 62X       0.075300
     23 O20          2.9390     0.9450    -3.1350 oh         1 62X      -0.698000
     24 O22          1.1260     3.0340    -2.9310 oh         1 62X      -0.713000
     25 N23          2.4250    -0.1260    -0.2950 na         1 62X      -0.290300
     26 N25          2.8420    -2.1490     0.5450 nd         1 62X      -0.525100
     27 C27          4.9160    -1.3930     1.8150 ca         1 62X       0.443900
     28 N28          5.2640    -2.5510     2.3780 nv         1 62X      -1.069900
     29 N29          5.6540    -0.3020     2.0500 nb         1 62X      -0.320000
     30 C30          5.2960     0.8530     1.4950 ca         1 62X       0.161900
     31 N31          4.2690     1.1000     0.7000 nb         1 62X      -0.221000
     32 C32          3.5470     0.0050     0.4740 ca         1 62X       0.120500
     33 H1          -4.5330     3.8650     0.2750 h1         1 62X       0.021200
     34 H2          -2.9870     2.1780     1.2610 hc         1 62X       0.063700
     35 H3          -4.2530     1.2740    -1.3650 h1         1 62X       0.014200
     36 H4          -2.9900     2.4730    -1.1660 h1         1 62X       0.014200
     37 H5          -3.6460    -0.7880     0.1560 h1         1 62X       0.031700
     38 H6          -3.3170    -1.2090    -1.5120 h1         1 62X       0.031700
     39 H7          -2.6220    -3.5120    -0.9600 h1         1 62X       0.033700
     40 H8          -1.1270    -0.3010    -2.2550 h1         1 62X       0.036700
     41 H9          -2.0590     1.0690    -2.8150 h1         1 62X       0.036700
     42 H10          0.0980     1.4670    -3.8240 h1         1 62X       0.047700
     43 H11          1.1810    -1.8380    -0.7080 h5         1 62X       0.112800
     44 H12         -4.2140     4.6580     2.6540 h1         1 62X       0.026700
     45 H13         -5.1290     3.8120     3.9130 h1         1 62X       0.026700
     46 H14         -3.7890     3.0030     3.1140 h1         1 62X       0.026700
     47 H15         -7.4480     3.5390     1.1880 h1         1 62X       0.026700
     48 H16         -7.2020     4.0980     2.8420 h1         1 62X       0.026700
     49 H17         -6.4900     4.9970     1.4950 h1         1 62X       0.026700
     50 H19         -0.9280    -1.7350    -0.8230 hc         1 62X       0.044200
     51 H20         -1.3640    -1.3990     0.8350 hc         1 62X       0.044200
     52 H21         -3.5560    -4.2860     1.0690 hn         1 62X       0.384000
     53 H22         -2.8990    -3.0880     1.9020 hn         1 62X       0.384000
     54 H25         -0.7020     2.5930    -1.4000 h1         1 62X       0.077700
     55 H26          2.3950     1.8330    -0.8220 h2         1 62X       0.103700
     56 H27          1.3290    -0.2960    -2.7330 h1         1 62X       0.069700
     57 H28          2.9450     0.5240    -4.0000 ho         1 62X       0.507000
     58 H29          1.9210     3.0200    -3.4770 ho         1 62X       0.514000
     59 H30          4.7600    -3.3970     2.1770 hn         1 62X       0.503500
     60 H31          6.1090    -2.6170     2.9200 hn         1 62X       0.503500
     61 H32          5.9340     1.6990     1.7270 h5         1 62X       0.030100
     62 H33         -5.7370     2.6130    -0.0030 h1         1 62X       0.021200
     63 H34         -4.2480     0.9580     1.1650 hc         1 62X       0.063700
@<TRIPOS>BOND
     1     1     2 1   
     2     1    11 1   
     3     1    33 1   
     4     1    62 1   
     5     2     3 1   
     6     2    34 1   
     7     2    63 1   
     8     3    13 1   
     9     3    35 1   
    10     3    36 1   
    11     4    13 1   
    12     4    14 1   
    13     4    37 1   
    14     4    38 1   
    15     5    14 1   
    16     5    15 1   
    17     5    16 1   
    18     5    39 1   
    19     6    13 1   
    20     6    19 1   
    21     6    40 1   
    22     6    41 1   
    23     7    19 1   
    24     7    22 1   
    25     7    24 1   
    26     7    42 1   
    27     8    25 1   
    28     8    26 2   
    29     8    43 1   
    30     9    26 1   
    31     9    27 ar  
    32     9    32 ar  
    33    10    11 1   
    34    10    44 1   
    35    10    45 1   
    36    10    46 1   
    37    11    12 1   
    38    12    47 1   
    39    12    48 1   
    40    12    49 1   
    41    14    50 1   
    42    14    51 1   
    43    15    52 1   
    44    15    53 1   
    45    16    17 1   
    46    16    18 1   
    47    19    20 1   
    48    19    54 1   
    49    20    21 1   
    50    21    22 1   
    51    21    25 1   
    52    21    55 1   
    53    22    23 1   
    54    22    56 1   
    55    23    57 1   
    56    24    58 1   
    57    25    32 1   
    58    27    28 1   
    59    27    29 ar  
    60    28    59 1   
    61    28    60 1   
    62    29    30 ar  
    63    30    31 ar  
    64    30    61 1   
    65    31    32 ar  
@<TRIPOS>SUBSTRUCTURE
     1 62X         1 TEMP              0 ****  ****    0 ROOT
