@<TRIPOS>MOLECULE
630
   54    57     1     0     0
SMALL
abcg2


@<TRIPOS>ATOM
      1 N1         -13.4730    11.7050   -27.8090 nu         1 630      -0.900900
      2 N3         -13.4890    14.0290   -27.8620 nb         1 630      -0.340000
      3 C4         -13.0080    15.1630   -28.3390 ca         1 630       0.447300
      4 C5         -11.9790    15.1750   -29.2890 ca         1 630      -0.261800
      5 C6         -11.5240    13.8940   -29.6770 ca         1 630       0.197500
      6 C10        -11.1950    16.1200   -30.0270 cc         1 630       0.107800
      7 C13        -14.5160    16.3160   -26.8950 c3         1 630       0.171600
      8 C15        -13.6120    18.4800   -25.9390 c5         1 630       0.155300
      9 C20        -14.6650    17.6450   -21.8020 c3         1 630      -0.149400
     10 C21        -15.3430    17.3160   -20.4800 c3         1 630      -0.076100
     11 C24        -12.6720    20.6640   -25.8520 c3         1 630       0.143900
     12 C26        -14.9570    10.2780   -26.4730 cc         1 630      -0.226000
     13 C2         -12.9680    12.8670   -28.3120 ca         1 630       0.446900
     14 N7         -11.9900    12.7320   -29.2160 nb         1 630      -0.296000
     15 N8         -10.5330    14.0650   -30.5930 na         1 630      -0.326400
     16 C9         -10.3250    15.4190   -30.8120 cd         1 630      -0.178100
     17 O12        -13.5010    16.3290   -27.9180 os         1 630      -0.454300
     18 C14        -14.8230    17.7600   -26.5420 c5         1 630      -0.084700
     19 C16        -13.6390    18.0590   -24.4680 c5         1 630       0.073000
     20 N17        -15.0620    17.8360   -24.1970 n          1 630      -0.421800
     21 C18        -15.8660    17.8270   -25.4230 c5         1 630       0.111000
     22 C19        -15.6160    17.6440   -22.9850 c          1 630       0.601100
     23 O22        -16.8340    17.4760   -22.8540 o          1 630      -0.610100
     24 O23        -13.8290    19.8770   -26.1000 os         1 630      -0.454000
     25 C25        -14.4970    11.5220   -26.8820 cd         1 630       0.192000
     26 N27        -15.9340    10.5030   -25.5630 na         1 630       0.128800
     27 N28        -16.1440    11.8100   -25.3600 nc         1 630      -0.513800
     28 C29        -15.2750    12.4470   -26.1520 cd         1 630       0.247900
     29 C30        -16.7550     9.5110   -24.8970 c3         1 630       0.080900
     30 H1         -13.0530    10.8710   -28.1880 hn         1 630       0.512000
     31 H2         -15.4060    15.8160   -27.2770 h1         1 630       0.060700
     32 H3         -14.1490    15.7540   -26.0350 h1         1 630       0.060700
     33 H4         -12.6740    18.1960   -26.4210 h1         1 630       0.069700
     34 H5         -13.8550    16.9390   -22.0060 hc         1 630       0.052700
     35 H6         -14.1900    18.6300   -21.7520 hc         1 630       0.052700
     36 H7         -14.6120    17.3310   -19.6710 hc         1 630       0.042367
     37 H8         -16.1260    18.0390   -20.2480 hc         1 630       0.042367
     38 H9         -15.8000    16.3260   -20.5080 hc         1 630       0.042367
     39 H10        -12.9410    21.6990   -26.0540 h1         1 630       0.032700
     40 H11        -12.3370    20.5810   -24.8130 h1         1 630       0.032700
     41 H12        -11.8510    20.3640   -26.5120 h1         1 630       0.032700
     42 H13        -14.6590     9.2830   -26.7600 h4         1 630       0.154000
     43 H14        -10.0230    13.3200   -31.0420 hn         1 630       0.366000
     44 H15         -9.5790    15.7680   -31.5040 h4         1 630       0.231000
     45 H16        -15.1600    18.2850   -27.4360 hc         1 630       0.094700
     46 H17        -13.0600    17.1440   -24.3170 h1         1 630       0.051200
     47 H18        -13.2240    18.8310   -23.8220 h1         1 630       0.051200
     48 H19        -16.4650    18.7370   -25.4950 h1         1 630       0.066700
     49 H20        -16.5470    16.9760   -25.4240 h1         1 630       0.066700
     50 H21        -15.2320    13.5190   -26.1710 h4         1 630       0.056100
     51 H22        -16.8110     9.7420   -23.8350 h1         1 630       0.057033
     52 H23        -17.7610     9.5030   -25.3200 h1         1 630       0.057033
     53 H24        -16.2980     8.5340   -25.0320 h1         1 630       0.057033
     54 CL1        -11.3100    17.8430   -29.9510 cl         1 630      -0.154000
@<TRIPOS>BOND
     1     1    13 1   
     2     1    25 1   
     3     1    30 1   
     4     2     3 ar  
     5     2    13 ar  
     6     3     4 ar  
     7     3    17 1   
     8     4     5 ar  
     9     4     6 1   
    10     5    14 ar  
    11     5    15 1   
    12     6    16 2   
    13     6    54 1   
    14     7    17 1   
    15     7    18 1   
    16     7    31 1   
    17     7    32 1   
    18     8    18 1   
    19     8    19 1   
    20     8    24 1   
    21     8    33 1   
    22     9    10 1   
    23     9    22 1   
    24     9    34 1   
    25     9    35 1   
    26    10    36 1   
    27    10    37 1   
    28    10    38 1   
    29    11    24 1   
    30    11    39 1   
    31    11    40 1   
    32    11    41 1   
    33    12    25 2   
    34    12    26 1   
    35    12    42 1   
    36    13    14 ar  
    37    15    16 1   
    38    15    43 1   
    39    16    44 1   
    40    18    21 1   
    41    18    45 1   
    42    19    20 1   
    43    19    46 1   
    44    19    47 1   
    45    20    21 1   
    46    20    22 1   
    47    21    48 1   
    48    21    49 1   
    49    22    23 2   
    50    25    28 1   
    51    26    27 1   
    52    26    29 1   
    53    27    28 2   
    54    28    50 1   
    55    29    51 1   
    56    29    52 1   
    57    29    53 1   
@<TRIPOS>SUBSTRUCTURE
     1 630         1 TEMP              0 ****  ****    0 ROOT
