@<TRIPOS>MOLECULE
630
   54    57     1     0     0
SMALL
No Charge or Current Charge


@<TRIPOS>ATOM
      1 N1         -13.5900    11.5480   -27.8600 nu         1 630      -0.900900
      2 N3         -13.5810    13.8910   -27.8110 nb         1 630      -0.340000
      3 C4         -13.0350    15.0420   -28.2530 ca         1 630       0.447300
      4 C5         -11.9740    14.9920   -29.1670 ca         1 630      -0.261800
      5 C6         -11.5030    13.7820   -29.6040 ca         1 630       0.197500
      6 C10        -11.2040    16.0220   -29.7950 cc         1 630       0.107800
      7 C13        -14.5430    16.3520   -26.8320 c3         1 630       0.171600
      8 C15        -13.5750    18.6330   -26.0360 c5         1 630       0.155300
      9 C20        -14.5440    17.8490   -21.7390 c3         1 630      -0.149400
     10 C21        -15.1750    17.5760   -20.3550 c3         1 630      -0.076100
     11 C24        -12.8190    20.9830   -25.8530 c3         1 630       0.143900
     12 C26        -14.9710     9.9250   -26.7050 cc         1 630      -0.226000
     13 C2         -13.0550    12.7510   -28.2920 ca         1 630       0.446900
     14 N7         -12.0420    12.6310   -29.1700 nb         1 630      -0.296000
     15 N8         -10.4610    13.9890   -30.4950 na         1 630      -0.326400
     16 C9         -10.2800    15.3930   -30.6080 cd         1 630      -0.178100
     17 O12        -13.5040    16.2610   -27.8220 os         1 630      -0.454300
     18 C14        -14.8110    17.8530   -26.5700 c5         1 630      -0.084700
     19 C16        -13.5570    18.2530   -24.5200 c5         1 630       0.073000
     20 N17        -14.9940    18.0270   -24.2250 n          1 630      -0.421800
     21 C18        -15.8450    18.0910   -25.4330 c5         1 630       0.111000
     22 C19        -15.5270    17.9170   -22.9260 c          1 630       0.601100
     23 O22        -16.7400    17.8580   -22.7590 o          1 630      -0.610100
     24 O23        -13.8640    20.0510   -26.1870 os         1 630      -0.454000
     25 C25        -14.6020    11.2030   -26.9830 cd         1 630       0.192000
     26 N27        -16.0100    10.0710   -25.7860 na         1 630       0.128800
     27 N28        -16.3070    11.3850   -25.4760 nc         1 630      -0.513800
     28 C29        -15.4410    12.0590   -26.2140 cd         1 630       0.247900
     29 C30        -16.7700     8.9810   -25.1560 c3         1 630       0.080900
     30 H1         -13.1280    10.7460   -28.2880 hn         1 630       0.512000
     31 H2         -15.4660    15.8750   -27.1880 h1         1 630       0.060700
     32 H3         -14.2380    15.8580   -25.8990 h1         1 630       0.060700
     33 H4         -12.6410    18.3880   -26.5600 h1         1 630       0.069700
     34 H5         -13.7670    17.1150   -21.9780 hc         1 630       0.052700
     35 H6         -13.9640    18.7790   -21.7310 hc         1 630       0.052700
     36 H7         -14.3990    17.5440   -19.5810 hc         1 630       0.042367
     37 H8         -15.8900    18.3650   -20.0900 hc         1 630       0.042367
     38 H9         -15.7020    16.6140   -20.3520 hc         1 630       0.042367
     39 H10        -13.1410    22.0090   -26.0750 h1         1 630       0.032700
     40 H11        -12.5650    20.9350   -24.7870 h1         1 630       0.032700
     41 H12        -11.9130    20.7770   -26.4370 h1         1 630       0.032700
     42 H13        -14.6100     8.9690   -27.0570 h4         1 630       0.154000
     43 H14         -9.9330    13.2640   -30.9700 hn         1 630       0.366000
     44 H15         -9.5180    15.8370   -31.2440 h4         1 630       0.231000
     45 H16        -15.1680    18.2720   -27.5170 hc         1 630       0.094700
     46 H17        -12.9820    17.3330   -24.3540 h1         1 630       0.051200
     47 H18        -13.1230    19.0420   -23.8930 h1         1 630       0.051200
     48 H19        -16.3170    19.0790   -25.5170 h1         1 630       0.066700
     49 H20        -16.6390    17.3310   -25.4280 h1         1 630       0.066700
     50 H21        -15.4460    13.1390   -26.1680 h4         1 630       0.056100
     51 H22        -16.6500     9.0310   -24.0680 h1         1 630       0.057033
     52 H23        -17.8320     9.0800   -25.4110 h1         1 630       0.057033
     53 H24        -16.4000     8.0140   -25.5170 h1         1 630       0.057033
     54 Cl1        -11.3890    17.7350   -29.5700 cl         1 630      -0.154000
@<TRIPOS>BOND
     1     1    13 1   
     2     1    25 1   
     3     1    30 1   
     4     2     3 ar  
     5     2    13 ar  
     6     3     4 ar  
     7     3    17 1   
     8     4     5 ar  
     9     4     6 1   
    10     5    14 ar  
    11     5    15 1   
    12     6    16 2   
    13     6    54 1   
    14     7    17 1   
    15     7    18 1   
    16     7    31 1   
    17     7    32 1   
    18     8    18 1   
    19     8    19 1   
    20     8    24 1   
    21     8    33 1   
    22     9    10 1   
    23     9    22 1   
    24     9    34 1   
    25     9    35 1   
    26    10    36 1   
    27    10    37 1   
    28    10    38 1   
    29    11    24 1   
    30    11    39 1   
    31    11    40 1   
    32    11    41 1   
    33    12    25 2   
    34    12    26 1   
    35    12    42 1   
    36    13    14 ar  
    37    15    16 1   
    38    15    43 1   
    39    16    44 1   
    40    18    21 1   
    41    18    45 1   
    42    19    20 1   
    43    19    46 1   
    44    19    47 1   
    45    20    21 1   
    46    20    22 1   
    47    21    48 1   
    48    21    49 1   
    49    22    23 2   
    50    25    28 1   
    51    26    27 1   
    52    26    29 1   
    53    27    28 2   
    54    28    50 1   
    55    29    51 1   
    56    29    52 1   
    57    29    53 1   
@<TRIPOS>SUBSTRUCTURE
     1 630         1 TEMP              0 ****  ****    0 ROOT
