@<TRIPOS>MOLECULE
631
   63    68     1     0     0
SMALL
No Charge or Current Charge


@<TRIPOS>ATOM
      1 C01         -3.4340     4.7860     0.8750 c3         1 631       0.148900
      2 O02         -3.3880     3.5250     0.1830 os         1 631      -0.340100
      3 C03         -4.4030     2.5930     0.2800 ca         1 631       0.114100
      4 C04         -5.5710     2.8190     1.0620 ca         1 631      -0.167000
      5 C05         -6.5870     1.8410     1.1310 ca         1 631      -0.108000
      6 C06         -6.3980     0.6570     0.4130 ca         1 631      -0.068000
      7 N07         -7.2250    -0.4590     0.2930 ns         1 631      -0.140000
      8 C08         -6.7300    -1.4580    -0.5120 c          1 631       0.598000
      9 O09         -7.2680    -2.5260    -0.7800 o          1 631      -0.538000
     10 C10         -5.3730    -0.9420    -0.9890 cx         1 631      -0.194700
     11 C11         -4.8620    -1.2540    -2.3780 cx         1 631      -0.066400
     12 C12         -4.2180    -1.9070    -1.1710 cx         1 631      -0.023400
     13 C13         -2.8240    -1.5680    -0.7260 ca         1 631      -0.057300
     14 C14         -1.7690    -1.4980    -1.6680 ca         1 631      -0.121000
     15 C15         -0.4620    -1.1710    -1.2530 ca         1 631      -0.057000
     16 C16         -0.2530    -0.9240     0.1110 ca         1 631      -0.127000
     17 C17          0.9240    -0.5750     0.8300 cc         1 631      -0.063100
     18 C18          2.2760    -0.3740     0.3110 ce         1 631      -0.147000
     19 C19          3.3880    -0.0380     1.0270 cf         1 631      -0.149200
     20 C20          4.7740     0.1790     0.5620 ca         1 631      -0.058800
     21 C21          5.7700     0.5230     1.4990 ca         1 631      -0.099500
     22 C22          7.0980     0.7360     1.0890 ca         1 631      -0.099000
     23 C23          7.4540     0.6070    -0.2660 ca         1 631      -0.074300
     24 C24          8.8950     0.8390    -0.7170 c3         1 631       0.208100
     25 N25          9.5870    -0.3970    -1.1600 n3         1 631      -0.712600
     26 C26         10.8990    -0.1140    -1.7820 c3         1 631       0.148600
     27 C27          9.6800    -1.4270    -0.0990 c3         1 631       0.148600
     28 C28          6.4640     0.2640    -1.2050 ca         1 631      -0.099000
     29 C29          5.1350     0.0510    -0.7960 ca         1 631      -0.099500
     30 N30          0.5320    -0.4580     2.1610 na         1 631       0.022500
     31 N31         -0.8340    -0.7120     2.3430 nc         1 631      -0.271400
     32 C32         -1.2600    -0.9930     1.0430 ca         1 631      -0.069000
     33 C33         -2.5650    -1.3190     0.6410 ca         1 631      -0.058000
     34 C34         -5.2650     0.4210    -0.3480 ca         1 631      -0.061300
     35 C35         -4.2500     1.3850    -0.4340 ca         1 631      -0.084000
     36 H1          -2.5300     5.3690     0.6620 h1         1 631       0.039033
     37 H2          -4.3030     5.3750     0.5530 h1         1 631       0.039033
     38 H3          -3.4930     4.6330     1.9600 h1         1 631       0.039033
     39 H4          -5.7070     3.7430     1.6160 ha         1 631       0.118000
     40 H5          -7.4860     2.0030     1.7210 ha         1 631       0.119000
     41 H6          -8.1240    -0.5240     0.7520 hn         1 631       0.171000
     42 H7          -5.4760    -1.8780    -3.0220 hc         1 631       0.087200
     43 H8          -4.3040    -0.4790    -2.8980 hc         1 631       0.087200
     44 H9          -4.4360    -2.9640    -1.0280 hc         1 631       0.106700
     45 H10         -1.9610    -1.6950    -2.7200 ha         1 631       0.113000
     46 H11          0.3520    -1.1120    -1.9710 ha         1 631       0.115000
     47 H12          2.3640    -0.5160    -0.7650 ha         1 631       0.193000
     48 H13          3.2650     0.0960     2.1020 ha         1 631       0.162000
     49 H14          5.5170     0.6270     2.5510 ha         1 631       0.111500
     50 H15          7.8510     0.9990     1.8290 ha         1 631       0.120000
     51 H16          8.8720     1.5650    -1.5420 h1         1 631       0.038700
     52 H17          9.4570     1.3100     0.1010 h1         1 631       0.038700
     53 H19         11.5920     0.3270    -1.0530 h1         1 631       0.032367
     54 H20         11.3510    -1.0350    -2.1730 h1         1 631       0.032367
     55 H21         10.7890     0.5880    -2.6200 h1         1 631       0.032367
     56 H22          8.6830    -1.7100     0.2650 h1         1 631       0.032367
     57 H23         10.1640    -2.3350    -0.4820 h1         1 631       0.032367
     58 H24         10.2660    -1.0590     0.7540 h1         1 631       0.032367
     59 H25          6.7280     0.1580    -2.2550 ha         1 631       0.120000
     60 H26          4.3970    -0.2140    -1.5470 ha         1 631       0.111500
     61 H27          1.1250    -0.2190     2.9490 hn         1 631       0.371000
     62 H28         -3.3670    -1.3700     1.3740 ha         1 631       0.132000
     63 H29         -3.3600     1.2080    -1.0320 ha         1 631       0.139000
@<TRIPOS>BOND
     1     1     2 1   
     2     1    36 1   
     3     1    37 1   
     4     1    38 1   
     5     2     3 1   
     6     3     4 ar  
     7     3    35 ar  
     8     4     5 ar  
     9     4    39 1   
    10     5     6 ar  
    11     5    40 1   
    12     6     7 1   
    13     6    34 ar  
    14     7     8 1   
    15     7    41 1   
    16     8     9 2   
    17     8    10 1   
    18    10    11 1   
    19    10    12 1   
    20    10    34 1   
    21    11    12 1   
    22    11    42 1   
    23    11    43 1   
    24    12    13 1   
    25    12    44 1   
    26    13    14 ar  
    27    13    33 ar  
    28    14    15 ar  
    29    14    45 1   
    30    15    16 ar  
    31    15    46 1   
    32    16    17 2   
    33    16    32 ar  
    34    17    18 1   
    35    17    30 1   
    36    18    19 2   
    37    18    47 1   
    38    19    20 1   
    39    19    48 1   
    40    20    21 ar  
    41    20    29 ar  
    42    21    22 ar  
    43    21    49 1   
    44    22    23 ar  
    45    22    50 1   
    46    23    24 1   
    47    23    28 ar  
    48    24    25 1   
    49    24    51 1   
    50    24    52 1   
    51    25    26 1   
    52    25    27 1   
    53    26    53 1   
    54    26    54 1   
    55    26    55 1   
    56    27    56 1   
    57    27    57 1   
    58    27    58 1   
    59    28    29 ar  
    60    28    59 1   
    61    29    60 1   
    62    30    31 1   
    63    30    61 1   
    64    31    32 2   
    65    32    33 ar  
    66    33    62 1   
    67    34    35 ar  
    68    35    63 1   
@<TRIPOS>SUBSTRUCTURE
     1 631         1 TEMP              0 ****  ****    0 ROOT
