@<TRIPOS>MOLECULE
631
   63    68     1     0     0
SMALL
abcg2


@<TRIPOS>ATOM
      1 C01         -2.8160     4.6000     0.6650 c3         1 631       0.148900
      2 O02         -2.8660     3.3500     0.0120 os         1 631      -0.340100
      3 C03         -3.9740     2.5900     0.1620 ca         1 631       0.114100
      4 C04         -5.0810     2.9600     0.9200 ca         1 631      -0.167000
      5 C05         -6.1890     2.1150     1.0240 ca         1 631      -0.108000
      6 C06         -6.1580     0.9090     0.3620 ca         1 631      -0.068000
      7 N07         -7.1200    -0.0980     0.3050 ns         1 631      -0.140000
      8 C08         -6.7180    -1.1460    -0.4610 c          1 631       0.598000
      9 O09         -7.3500    -2.1600    -0.6900 o          1 631      -0.538000
     10 C10         -5.3460    -0.8030    -0.9540 cx         1 631      -0.194700
     11 C11         -4.8940    -1.2980    -2.3050 cx         1 631      -0.066400
     12 C12         -4.3290    -1.9310    -1.0950 cx         1 631      -0.023400
     13 C13         -2.9240    -1.6990    -0.6600 ca         1 631      -0.057300
     14 C14         -1.8960    -1.5410    -1.6350 ca         1 631      -0.121000
     15 C15         -0.5950    -1.3050    -1.2840 ca         1 631      -0.057000
     16 C16         -0.2830    -1.2240     0.0870 ca         1 631      -0.127000
     17 C17          0.8830    -0.9800     0.8270 cc         1 631      -0.063100
     18 C18          2.2210    -0.7110     0.3670 ce         1 631      -0.147000
     19 C19          3.2490    -0.3150     1.1330 cf         1 631      -0.149200
     20 C20          4.6030    -0.0260     0.6730 ca         1 631      -0.058800
     21 C21          5.4950     0.5910     1.5520 ca         1 631      -0.099500
     22 C22          6.7830     0.9160     1.1550 ca         1 631      -0.099000
     23 C23          7.2250     0.6330    -0.1310 ca         1 631      -0.074300
     24 C24          8.6070     1.0230    -0.5820 c3         1 631       0.208100
     25 N25          9.3340    -0.0780    -1.1810 n3         1 631      -0.712600
     26 C26         10.5360     0.3930    -1.8350 c3         1 631       0.148600
     27 C27          9.6360    -1.1130    -0.2160 c3         1 631       0.148600
     28 C28          6.3450    -0.0040    -1.0070 ca         1 631      -0.099000
     29 C29          5.0590    -0.3270    -0.6170 ca         1 631      -0.099500
     30 N30          0.4810    -1.0280     2.1090 na         1 631       0.022500
     31 N31         -0.8060    -1.2700     2.2990 nc         1 631      -0.271400
     32 C32         -1.3000    -1.3920     1.0630 ca         1 631      -0.069000
     33 C33         -2.6360    -1.6330     0.6770 ca         1 631      -0.058000
     34 C34         -5.0490     0.5290    -0.4000 ca         1 631      -0.061300
     35 C35         -3.9580     1.3590    -0.5080 ca         1 631      -0.084000
     36 H1          -1.8530     5.0410     0.4180 h1         1 631       0.039033
     37 H2          -3.6070     5.2740     0.3240 h1         1 631       0.039033
     38 H3          -2.8870     4.4990     1.7520 h1         1 631       0.039033
     39 H4          -5.1080     3.9050     1.4440 ha         1 631       0.118000
     40 H5          -7.0440     2.4150     1.6160 ha         1 631       0.119000
     41 H6          -8.0110    -0.0630     0.7750 hn         1 631       0.171000
     42 H7          -5.6150    -1.8530    -2.8910 hc         1 631       0.087200
     43 H8          -4.2760    -0.6120    -2.8720 hc         1 631       0.087200
     44 H9          -4.7370    -2.9040    -0.8380 hc         1 631       0.106700
     45 H10         -2.1580    -1.6110    -2.6830 ha         1 631       0.113000
     46 H11          0.1670    -1.1870    -2.0440 ha         1 631       0.115000
     47 H12          2.3530    -0.8300    -0.7020 ha         1 631       0.193000
     48 H13          3.0940    -0.1590     2.1970 ha         1 631       0.162000
     49 H14          5.1740     0.8250     2.5610 ha         1 631       0.111500
     50 H15          7.4530     1.3970     1.8580 ha         1 631       0.120000
     51 H16          8.5170     1.8130    -1.3350 h1         1 631       0.038700
     52 H17          9.1550     1.4670     0.2660 h1         1 631       0.038700
     53 H19         11.2470     0.8750    -1.1470 h1         1 631       0.032367
     54 H20         11.0510    -0.4420    -2.3110 h1         1 631       0.032367
     55 H21         10.2810     1.1170    -2.6110 h1         1 631       0.032367
     56 H22          8.7190    -1.5240     0.2070 h1         1 631       0.032367
     57 H23         10.1700    -1.9290    -0.7040 h1         1 631       0.032367
     58 H24         10.2590    -0.7560     0.6200 h1         1 631       0.032367
     59 H25          6.6770    -0.2540    -2.0070 ha         1 631       0.120000
     60 H26          4.4090    -0.8260    -1.3240 ha         1 631       0.111500
     61 H27          1.0680    -0.9050     2.9220 hn         1 631       0.371000
     62 H28         -3.4140    -1.7380     1.4230 ha         1 631       0.132000
     63 H29         -3.0900     1.0790    -1.0930 ha         1 631       0.139000
@<TRIPOS>BOND
     1     1     2 1   
     2     1    36 1   
     3     1    37 1   
     4     1    38 1   
     5     2     3 1   
     6     3     4 ar  
     7     3    35 ar  
     8     4     5 ar  
     9     4    39 1   
    10     5     6 ar  
    11     5    40 1   
    12     6     7 1   
    13     6    34 ar  
    14     7     8 1   
    15     7    41 1   
    16     8     9 2   
    17     8    10 1   
    18    10    11 1   
    19    10    12 1   
    20    10    34 1   
    21    11    12 1   
    22    11    42 1   
    23    11    43 1   
    24    12    13 1   
    25    12    44 1   
    26    13    14 ar  
    27    13    33 ar  
    28    14    15 ar  
    29    14    45 1   
    30    15    16 ar  
    31    15    46 1   
    32    16    17 2   
    33    16    32 ar  
    34    17    18 1   
    35    17    30 1   
    36    18    19 2   
    37    18    47 1   
    38    19    20 1   
    39    19    48 1   
    40    20    21 ar  
    41    20    29 ar  
    42    21    22 ar  
    43    21    49 1   
    44    22    23 ar  
    45    22    50 1   
    46    23    24 1   
    47    23    28 ar  
    48    24    25 1   
    49    24    51 1   
    50    24    52 1   
    51    25    26 1   
    52    25    27 1   
    53    26    53 1   
    54    26    54 1   
    55    26    55 1   
    56    27    56 1   
    57    27    57 1   
    58    27    58 1   
    59    28    29 ar  
    60    28    59 1   
    61    29    60 1   
    62    30    31 1   
    63    30    61 1   
    64    31    32 2   
    65    32    33 ar  
    66    33    62 1   
    67    34    35 ar  
    68    35    63 1   
@<TRIPOS>SUBSTRUCTURE
     1 631         1 TEMP              0 ****  ****    0 ROOT
