@<TRIPOS>MOLECULE
633
   64    68     1     0     0
SMALL
abcg2


@<TRIPOS>ATOM
      1 C4          -1.7400    -3.8660    -0.0910 ca         1 633      -0.258800
      2 C5          -0.3580    -3.8170    -0.3230 ca         1 633       0.175500
      3 C8          -1.0740    -5.8720    -0.7910 cc         1 633      -0.194100
      4 C13         -4.7920    -0.0420     2.8930 ca         1 633      -0.078000
      5 C15         -5.2980     0.6230     0.6390 ca         1 633      -0.007000
      6 C20         -7.2820     4.7220    -1.4360 c3         1 633      -0.077100
      7 C24          2.8060    -1.0280    -0.0850 ca         1 633      -0.127000
      8 C26          4.4500     0.7720     0.0010 ca         1 633       0.256000
      9 C28          2.1190     1.1750     0.5290 ca         1 633      -0.127000
     10 C1          -0.2150    -1.6820     0.2640 ca         1 633       0.437900
     11 N2          -1.5370    -1.5950     0.5310 nb         1 633      -0.338000
     12 C3          -2.2740    -2.6570     0.3580 ca         1 633       0.439300
     13 N6           0.4290    -2.7540    -0.1570 nb         1 633      -0.274000
     14 N7           0.0240    -5.0410    -0.7450 na         1 633      -0.319400
     15 C9          -2.1830    -5.1890    -0.3960 cd         1 633      -0.168200
     16 O10         -3.5890    -2.6080     0.6110 os         1 633      -0.361400
     17 C11         -4.1330    -1.4320     1.0870 ca         1 633       0.138100
     18 C12         -4.1750    -1.2010     2.4510 ca         1 633      -0.132000
     19 C14         -5.3510     0.8730     2.0110 ca         1 633      -0.134000
     20 C16         -4.6790    -0.5440     0.1840 ca         1 633      -0.170000
     21 C18         -6.4500     2.6690    -0.2070 c          1 633       0.606100
     22 C19         -6.9190     3.2510    -1.5250 c3         1 633      -0.159400
     23 O21         -6.6330     3.2220     0.8610 o          1 633      -0.575100
     24 N22          0.4450    -0.5110     0.4740 nu         1 633      -0.924900
     25 C23          1.7810    -0.1590     0.2970 ca         1 633       0.291000
     26 C25          4.1040    -0.5650    -0.2200 ca         1 633      -0.127500
     27 C27          3.4160     1.6340     0.3770 ca         1 633      -0.127500
     28 N29          5.7820     1.1890    -0.1270 nh         1 633      -0.778400
     29 C30          6.0980     2.5400     0.2890 c6         1 633       0.192800
     30 C31          7.6010     2.7310     0.3770 c6         1 633       0.158300
     31 N32          8.2390     2.4270    -0.8850 n3         1 633      -0.714600
     32 C33          7.9410     1.0640    -1.2690 c6         1 633       0.158300
     33 C34          6.4450     0.8520    -1.3800 c6         1 633       0.192800
     34 C35          9.6620     2.6720    -0.8390 c3         1 633       0.152100
     35 H1          -0.9670    -6.8960    -1.1080 h4         1 633       0.217000
     36 H2          -4.8410     0.1620     3.9550 ha         1 633       0.119000
     37 H3          -8.0840     4.8970    -0.7200 hc         1 633       0.044700
     38 H4          -6.4260     5.3270    -1.1370 hc         1 633       0.044700
     39 H5          -7.6190     5.0800    -2.4070 hc         1 633       0.044700
     40 H6           2.6000    -2.0700    -0.2660 ha         1 633       0.127500
     41 H7           1.3480     1.8800     0.8220 ha         1 633       0.127500
     42 H8           0.9660    -5.3070    -0.9830 hn         1 633       0.361000
     43 H9          -3.1850    -5.5820    -0.3340 ha         1 633       0.214000
     44 H10         -3.7450    -1.9090     3.1470 ha         1 633       0.130000
     45 H11         -5.8200     1.7630     2.3960 ha         1 633       0.150000
     46 H12         -4.6300    -0.7600    -0.8770 ha         1 633       0.123000
     47 H13         -5.7240     1.1290    -1.2860 hn         1 633       0.149000
     48 H14         -7.7850     2.6660    -1.8530 hc         1 633       0.057700
     49 H15         -6.1500     3.0930    -2.2860 hc         1 633       0.057700
     50 H16         -0.1620     0.2340     0.7820 hn         1 633       0.512000
     51 H17          4.8690    -1.2820    -0.4900 ha         1 633       0.113500
     52 H18          3.6010     2.6850     0.5530 ha         1 633       0.113500
     53 H19          5.6770     3.2910    -0.3980 h1         1 633       0.042700
     54 H20          5.6710     2.7260     1.2760 h1         1 633       0.042700
     55 H21          7.8030     3.7710     0.6430 h1         1 633       0.038450
     56 H22          7.9970     2.1060     1.1960 h1         1 633       0.038450
     57 H24          8.3970     0.8530    -2.2390 h1         1 633       0.038450
     58 H25          8.3570     0.3360    -0.5500 h1         1 633       0.038450
     59 H26          6.2630    -0.1900    -1.6340 h1         1 633       0.042700
     60 H27          6.0500     1.4630    -2.2060 h1         1 633       0.042700
     61 H28         10.1860     2.0450    -0.1010 h1         1 633       0.031033
     62 H29         10.1070     2.4800    -1.8160 h1         1 633       0.031033
     63 H30          9.8530     3.7160    -0.5820 h1         1 633       0.031033
     64 N17         -5.8250     1.4660    -0.3410 ns         1 633      -0.152000
@<TRIPOS>BOND
     1     1     2 ar  
     2     1    12 ar  
     3     1    15 1   
     4     2    13 ar  
     5     2    14 1   
     6     3    14 1   
     7     3    15 2   
     8     3    35 1   
     9     4    18 ar  
    10     4    19 ar  
    11     4    36 1   
    12     5    19 ar  
    13     5    20 ar  
    14     5    64 1   
    15     6    22 1   
    16     6    37 1   
    17     6    38 1   
    18     6    39 1   
    19     7    25 ar  
    20     7    26 ar  
    21     7    40 1   
    22     8    26 ar  
    23     8    27 ar  
    24     8    28 1   
    25     9    25 ar  
    26     9    27 ar  
    27     9    41 1   
    28    10    11 ar  
    29    10    13 ar  
    30    10    24 1   
    31    11    12 ar  
    32    12    16 1   
    33    14    42 1   
    34    15    43 1   
    35    16    17 1   
    36    17    18 ar  
    37    17    20 ar  
    38    18    44 1   
    39    19    45 1   
    40    20    46 1   
    41    21    22 1   
    42    21    23 2   
    43    21    64 1   
    44    22    48 1   
    45    22    49 1   
    46    24    25 1   
    47    24    50 1   
    48    26    51 1   
    49    27    52 1   
    50    28    29 1   
    51    28    33 1   
    52    29    30 1   
    53    29    53 1   
    54    29    54 1   
    55    30    31 1   
    56    30    55 1   
    57    30    56 1   
    58    31    32 1   
    59    31    34 1   
    60    32    33 1   
    61    32    57 1   
    62    32    58 1   
    63    33    59 1   
    64    33    60 1   
    65    34    61 1   
    66    34    62 1   
    67    34    63 1   
    68    47    64 1   
@<TRIPOS>SUBSTRUCTURE
     1 633         1 TEMP              0 ****  ****    0 ROOT
