@<TRIPOS>MOLECULE
633
   64    68     1     0     0
SMALL
No Charge or Current Charge


@<TRIPOS>ATOM
      1 C4          -1.7690    -3.8040     0.0420 ca         1 633      -0.258800
      2 C5          -0.5070    -3.7020    -0.4750 ca         1 633       0.175500
      3 C8          -1.3200    -5.7900    -1.0570 cc         1 633      -0.194100
      4 C13         -5.9410    -0.6530     3.0420 ca         1 633      -0.078000
      5 C15         -5.4390     0.3110     0.8490 ca         1 633      -0.007000
      6 C20         -5.3400     4.5410    -1.3400 c3         1 633      -0.077100
      7 C24          2.7290    -0.8640     0.2910 ca         1 633      -0.127000
      8 C26          4.2500     1.0070    -0.1400 ca         1 633       0.256000
      9 C28          1.8560     1.3930     0.2010 ca         1 633      -0.127000
     10 C1          -0.3590    -1.6120     0.4230 ca         1 633       0.437900
     11 N2          -1.5940    -1.6220     0.9580 nb         1 633      -0.338000
     12 C3          -2.3260    -2.7410     0.7630 ca         1 633       0.439300
     13 N6           0.2280    -2.5920    -0.2990 nb         1 633      -0.274000
     14 N7          -0.2320    -4.8890    -1.1370 na         1 633      -0.319400
     15 C9          -2.2720    -5.1040    -0.3220 cd         1 633      -0.168200
     16 O10         -3.5940    -2.8730     1.2870 os         1 633      -0.361400
     17 C11         -4.4070    -1.7950     1.5450 ca         1 633       0.138100
     18 C12         -5.0930    -1.7380     2.7660 ca         1 633      -0.132000
     19 C14         -6.1120     0.3690     2.0910 ca         1 633      -0.134000
     20 C16         -4.5900    -0.7800     0.5860 ca         1 633      -0.170000
     21 C18         -6.3320     2.4560    -0.2560 c          1 633       0.606100
     22 C19         -6.1400     3.2380    -1.5630 c3         1 633      -0.159400
     23 O21         -7.1280     2.8290     0.5990 o          1 633      -0.575100
     24 N22          0.3280    -0.4260     0.6220 nu         1 633      -0.924900
     25 C23          1.6310     0.0150     0.3600 ca         1 633       0.291000
     26 C25          4.0230    -0.3710     0.0390 ca         1 633      -0.127500
     27 C27          3.1510     1.8860    -0.0510 ca         1 633      -0.127500
     28 N29          5.5600     1.4810    -0.3910 nh         1 633      -0.778400
     29 C30          5.9630     2.8830    -0.0430 c6         1 633       0.192800
     30 C31          7.5110     3.0460     0.1100 c6         1 633       0.158300
     31 N32          8.2690     2.5420    -1.0760 n3         1 633      -0.714600
     32 C33          7.8980     1.1180    -1.3430 c6         1 633       0.158300
     33 C34          6.3580     0.9150    -1.5270 c6         1 633       0.192800
     34 C35          9.7280     2.7370    -0.9450 c3         1 633       0.152100
     35 H1          -1.3260    -6.7820    -1.5040 h4         1 633       0.217000
     36 H2          -6.4680    -0.6040     3.9930 ha         1 633       0.119000
     37 H3          -5.8580     5.2010    -0.6340 hc         1 633       0.044700
     38 H4          -4.3420     4.3210    -0.9390 hc         1 633       0.044700
     39 H5          -5.2160     5.0820    -2.2860 hc         1 633       0.044700
     40 H6           2.5950    -1.9280     0.4510 ha         1 633       0.127500
     41 H7           1.0240     2.0890     0.2600 ha         1 633       0.127500
     42 H8           0.6450    -5.0740    -1.6130 hn         1 633       0.361000
     43 H9          -3.2550    -5.4960    -0.0610 ha         1 633       0.214000
     44 H10         -4.9630    -2.5290     3.4990 ha         1 633       0.130000
     45 H11         -6.7720     1.1940     2.3400 ha         1 633       0.150000
     46 H12         -4.0720    -0.8440    -0.3670 ha         1 633       0.123000
     47 H13         -4.9750     1.1360    -0.9690 hn         1 633       0.149000
     48 H14         -7.1250     3.5050    -1.9630 hc         1 633       0.057700
     49 H15         -5.5990     2.6250    -2.2950 hc         1 633       0.057700
     50 H16         -0.2880     0.3040     0.9780 hn         1 633       0.512000
     51 H17          4.8580    -1.0660     0.0020 ha         1 633       0.113500
     52 H18          3.2880     2.9550    -0.1870 ha         1 633       0.113500
     53 H19          5.6130     3.5730    -0.8250 h1         1 633       0.042700
     54 H20          5.4910     3.1900     0.9020 h1         1 633       0.042700
     55 H21          7.7340     4.1090     0.2800 h1         1 633       0.038450
     56 H22          7.8280     2.5050     1.0150 h1         1 633       0.038450
     57 H24          8.4080     0.7570    -2.2480 h1         1 633       0.038450
     58 H25          8.2350     0.4810    -0.5120 h1         1 633       0.038450
     59 H26          6.1660    -0.1600    -1.6430 h1         1 633       0.042700
     60 H27          6.0510     1.4000    -2.4660 h1         1 633       0.042700
     61 H28         10.1250     2.1720    -0.0910 h1         1 633       0.031033
     62 H29         10.2470     2.3980    -1.8520 h1         1 633       0.031033
     63 H30          9.9660     3.7990    -0.7960 h1         1 633       0.031033
     64 N17         -5.5640     1.3020    -0.1630 ns         1 633      -0.152000
@<TRIPOS>BOND
     1     1     2 ar  
     2     1    12 ar  
     3     1    15 1   
     4     2    13 ar  
     5     2    14 1   
     6     3    14 1   
     7     3    15 2   
     8     3    35 1   
     9     4    18 ar  
    10     4    19 ar  
    11     4    36 1   
    12     5    19 ar  
    13     5    20 ar  
    14     5    64 1   
    15     6    22 1   
    16     6    37 1   
    17     6    38 1   
    18     6    39 1   
    19     7    25 ar  
    20     7    26 ar  
    21     7    40 1   
    22     8    26 ar  
    23     8    27 ar  
    24     8    28 1   
    25     9    25 ar  
    26     9    27 ar  
    27     9    41 1   
    28    10    11 ar  
    29    10    13 ar  
    30    10    24 1   
    31    11    12 ar  
    32    12    16 1   
    33    14    42 1   
    34    15    43 1   
    35    16    17 1   
    36    17    18 ar  
    37    17    20 ar  
    38    18    44 1   
    39    19    45 1   
    40    20    46 1   
    41    21    22 1   
    42    21    23 2   
    43    21    64 1   
    44    22    48 1   
    45    22    49 1   
    46    24    25 1   
    47    24    50 1   
    48    26    51 1   
    49    27    52 1   
    50    28    29 1   
    51    28    33 1   
    52    29    30 1   
    53    29    53 1   
    54    29    54 1   
    55    30    31 1   
    56    30    55 1   
    57    30    56 1   
    58    31    32 1   
    59    31    34 1   
    60    32    33 1   
    61    32    57 1   
    62    32    58 1   
    63    33    59 1   
    64    33    60 1   
    65    34    61 1   
    66    34    62 1   
    67    34    63 1   
    68    47    64 1   
@<TRIPOS>SUBSTRUCTURE
     1 633         1 TEMP              0 ****  ****    0 ROOT
