@<TRIPOS>MOLECULE
634
   47    50     1     0     0
SMALL
bcc


@<TRIPOS>ATOM
      1 C4           3.0350     2.2010     0.1880 ca         1 634      -0.393400
      2 C5           3.9790     1.4040    -0.4850 ca         1 634       0.511800
      3 C8           4.8340     3.4460    -0.2270 cc         1 634      -0.144100
      4 C13         -1.6220     0.2730     2.9440 ca         1 634      -0.095000
      5 C15         -2.5190     0.9070     0.8050 ca         1 634       0.087600
      6 C20         -5.5290     0.7780    -1.4580 c3         1 634      -0.159400
      7 C21         -7.0040     0.4290    -1.3900 c3         1 634      -0.076100
      8 C24          1.1730    -3.7660    -0.9190 cc         1 634      -0.207300
      9 C28         -0.6480    -5.4620    -0.7050 c3         1 634       0.049600
     10 C1           2.6550    -0.3780    -0.4590 ca         1 634       0.967900
     11 N2           1.6730     0.2690     0.1850 nb         1 634      -0.852000
     12 C3           1.8580     1.5260     0.4990 ca         1 634       0.764600
     13 N6           3.8280     0.1270    -0.8220 nb         1 634      -0.821000
     14 N7           5.0590     2.1790    -0.7250 na         1 634      -0.274100
     15 C9           3.6010     3.5040     0.3440 cd         1 634      -0.117200
     16 O10          0.8900     2.1930     1.1410 os         1 634      -0.358400
     17 C11         -0.2810     1.5220     1.4360 ca         1 634       0.134100
     18 C12         -0.4150     0.8940     2.6620 ca         1 634      -0.151000
     19 C14         -2.6720     0.2670     2.0370 ca         1 634      -0.147000
     20 C16         -1.3070     1.5390     0.5140 ca         1 634      -0.191000
     21 C18         -4.7900     0.5310    -0.1590 c          1 634       0.674100
     22 O19         -5.3040    -0.0040     0.8050 o          1 634      -0.573100
     23 N22          2.4380    -1.6790    -0.7770 nu         1 634      -0.708300
     24 C23          1.3020    -2.4430    -0.5430 cd         1 634      -0.008700
     25 N25         -0.0550    -4.1600    -0.5270 na         1 634       0.117400
     26 N26         -0.7270    -3.1940     0.0710 nc         1 634      -0.518800
     27 C27          0.0720    -2.1360     0.0770 cd         1 634       0.313200
     28 H1           5.5870     4.2100    -0.3270 h4         1 634       0.166000
     29 H2          -1.7520    -0.2260     3.8950 ha         1 634       0.137000
     30 H3          -5.0370     0.1960    -2.2430 hc         1 634       0.057700
     31 H4          -5.3970     1.8250    -1.7430 hc         1 634       0.057700
     32 H5          -7.4730     0.6270    -2.3530 hc         1 634       0.044033
     33 H6          -7.1610    -0.6220    -1.1540 hc         1 634       0.044033
     34 H7          -7.5240     1.0240    -0.6400 hc         1 634       0.044033
     35 H8           1.8590    -4.4260    -1.4260 h4         1 634       0.170000
     36 H9          -0.9100    -5.8960     0.2580 h1         1 634       0.054367
     37 H10         -1.5430    -5.3930    -1.3210 h1         1 634       0.054367
     38 H11          0.0690    -6.1120    -1.1990 h1         1 634       0.054367
     39 H12          5.8950     1.8800    -1.2000 hn         1 634       0.309700
     40 H13          3.1560     4.3660     0.8120 ha         1 634       0.164000
     41 H14          0.3980     0.8890     3.3750 ha         1 634       0.148000
     42 H15         -3.5920    -0.2310     2.2950 ha         1 634       0.170000
     43 H16         -1.1690     2.0440    -0.4350 ha         1 634       0.140000
     44 H17         -3.2040     1.4050    -1.0450 hn         1 634       0.315500
     45 H18          3.1950    -2.1320    -1.2630 hn         1 634       0.455800
     46 H19         -0.2510    -1.2080     0.5130 h4         1 634       0.066100
     47 N17         -3.4990     0.9630    -0.1860 ns         1 634      -0.477100
@<TRIPOS>BOND
     1     1     2 ar  
     2     1    12 ar  
     3     1    15 1   
     4     2    13 ar  
     5     2    14 1   
     6     3    14 1   
     7     3    15 2   
     8     3    28 1   
     9     4    18 ar  
    10     4    19 ar  
    11     4    29 1   
    12     5    19 ar  
    13     5    20 ar  
    14     5    47 1   
    15     6     7 1   
    16     6    21 1   
    17     6    30 1   
    18     6    31 1   
    19     7    32 1   
    20     7    33 1   
    21     7    34 1   
    22     8    24 2   
    23     8    25 1   
    24     8    35 1   
    25     9    25 1   
    26     9    36 1   
    27     9    37 1   
    28     9    38 1   
    29    10    11 ar  
    30    10    13 ar  
    31    10    23 1   
    32    11    12 ar  
    33    12    16 1   
    34    14    39 1   
    35    15    40 1   
    36    16    17 1   
    37    17    18 ar  
    38    17    20 ar  
    39    18    41 1   
    40    19    42 1   
    41    20    43 1   
    42    21    22 2   
    43    21    47 1   
    44    23    24 1   
    45    23    45 1   
    46    24    27 1   
    47    25    26 1   
    48    26    27 2   
    49    27    46 1   
    50    44    47 1   
@<TRIPOS>SUBSTRUCTURE
     1 634         1 TEMP              0 ****  ****    0 ROOT
