@<TRIPOS>MOLECULE
634
   47    50     1     0     0
SMALL
No Charge or Current Charge


@<TRIPOS>ATOM
      1 C4           2.9760     2.1120     0.2250 ca         1 634      -0.262800
      2 C5           3.8380     1.4540    -0.6090 ca         1 634       0.183500
      3 C8           4.7220     3.5600    -0.2290 cc         1 634      -0.194100
      4 C13         -1.9490     1.1050     3.5180 ca         1 634      -0.077000
      5 C15         -2.5030     0.9050     1.1430 ca         1 634      -0.005000
      6 C20         -5.1980    -0.1590    -1.4020 c3         1 634      -0.159400
      7 C21         -6.3460     0.8390    -1.6730 c3         1 634      -0.076100
      8 C24          1.1180    -3.7790    -1.3410 cc         1 634      -0.240000
      9 C28         -0.6530    -5.6150    -1.2240 c3         1 634       0.078900
     10 C1           2.4550    -0.3530    -0.5400 ca         1 634       0.441900
     11 N2           1.5590     0.2150     0.2880 nb         1 634      -0.326000
     12 C3           1.8100     1.4830     0.6790 ca         1 634       0.436300
     13 N6           3.5920     0.1970    -1.0130 nb         1 634      -0.295000
     14 N7           4.8870     2.3180    -0.8850 na         1 634      -0.324400
     15 C9           3.5290     3.4220     0.4600 cd         1 634      -0.167200
     16 O10          0.9620     2.1580     1.5320 os         1 634      -0.358400
     17 C11         -0.2990     1.7020     1.8390 ca         1 634       0.134100
     18 C12         -0.6670     1.5720     3.1860 ca         1 634      -0.133000
     19 C14         -2.8630     0.7680     2.5030 ca         1 634      -0.129000
     20 C16         -1.2210     1.3880     0.8240 ca         1 634      -0.173000
     21 C18         -4.6280    -0.0020     0.0150 c          1 634       0.607100
     22 O19         -5.2430    -0.4030     0.9970 o          1 634      -0.573100
     23 N22          2.2070    -1.6450    -0.9770 nu         1 634      -0.901900
     24 C23          1.1580    -2.5300    -0.8090 cd         1 634       0.195000
     25 N25         -0.1110    -4.2830    -0.9190 na         1 634       0.138800
     26 N26         -0.8460    -3.4040    -0.1460 nc         1 634      -0.518800
     27 C27         -0.0580    -2.3420    -0.0890 cd         1 634       0.247900
     28 H1           5.4250     4.3880    -0.3030 h4         1 634       0.216000
     29 H2          -2.2350     1.0010     4.5630 ha         1 634       0.119000
     30 H3          -5.5940    -1.1750    -1.5130 hc         1 634       0.057700
     31 H4          -4.4110     0.0130    -2.1470 hc         1 634       0.057700
     32 H5          -6.7370     0.7070    -2.6890 hc         1 634       0.044033
     33 H6          -7.1710     0.6850    -0.9670 hc         1 634       0.044033
     34 H7          -5.9940     1.8730    -1.5730 hc         1 634       0.044033
     35 H8           1.8170    -4.3320    -1.9540 h4         1 634       0.152000
     36 H9          -0.8350    -6.1600    -0.2900 h1         1 634       0.054367
     37 H10         -1.5950    -5.5100    -1.7750 h1         1 634       0.054367
     38 H11          0.0640    -6.1760    -1.8360 h1         1 634       0.054367
     39 H12          5.6680     2.0730    -1.4860 hn         1 634       0.360000
     40 H13          3.0810     4.1940     1.0850 ha         1 634       0.214000
     41 H14          0.0410     1.8280     3.9690 ha         1 634       0.130000
     42 H15         -3.8450     0.4120     2.7960 ha         1 634       0.152000
     43 H16         -0.9330     1.5100    -0.2180 ha         1 634       0.122000
     44 H17         -2.9990     0.8340    -0.8450 hn         1 634       0.149000
     45 H18          2.9560    -2.0040    -1.5690 hn         1 634       0.511000
     46 H19         -0.3900    -1.4750     0.4650 h4         1 634       0.066100
     47 N17         -3.3700     0.5840     0.0620 ns         1 634      -0.151000
@<TRIPOS>BOND
     1     1     2 ar  
     2     1    12 ar  
     3     1    15 1   
     4     2    13 ar  
     5     2    14 1   
     6     3    14 1   
     7     3    15 2   
     8     3    28 1   
     9     4    18 ar  
    10     4    19 ar  
    11     4    29 1   
    12     5    19 ar  
    13     5    20 ar  
    14     5    47 1   
    15     6     7 1   
    16     6    21 1   
    17     6    30 1   
    18     6    31 1   
    19     7    32 1   
    20     7    33 1   
    21     7    34 1   
    22     8    24 2   
    23     8    25 1   
    24     8    35 1   
    25     9    25 1   
    26     9    36 1   
    27     9    37 1   
    28     9    38 1   
    29    10    11 ar  
    30    10    13 ar  
    31    10    23 1   
    32    11    12 ar  
    33    12    16 1   
    34    14    39 1   
    35    15    40 1   
    36    16    17 1   
    37    17    18 ar  
    38    17    20 ar  
    39    18    41 1   
    40    19    42 1   
    41    20    43 1   
    42    21    22 2   
    43    21    47 1   
    44    23    24 1   
    45    23    45 1   
    46    24    27 1   
    47    25    26 1   
    48    26    27 2   
    49    27    46 1   
    50    44    47 1   
@<TRIPOS>SUBSTRUCTURE
     1 634         1 TEMP              0 ****  ****    0 ROOT
