@<TRIPOS>MOLECULE
635
   79    83     1     0     0
SMALL
No Charge or Current Charge


@<TRIPOS>ATOM
      1 C1           0.5110    -2.2170    10.5920 c3         1 635      -0.105600
      2 F1          -2.9400    -2.2610    -0.2330 f          1 635      -0.190000
      3 N1          -4.2640     0.1430     7.7900 n          1 635      -0.321000
      4 O1          -0.7760    -1.8050     8.6240 os         1 635      -0.465100
      5 C2           0.5150    -2.2730     9.0540 c3         1 635       0.181300
      6 N2          -2.2490    -1.8900     4.5690 na         1 635      -0.220700
      7 O2          -0.5890    -2.7970     6.5730 o          1 635      -0.526000
      8 C3           1.5970    -1.3580     8.4380 c3         1 635      -0.105600
      9 N3           3.5420     6.0030    12.0400 n3         1 635      -0.716600
     10 O3          -5.5440     1.9550     8.4320 o          1 635      -0.554100
     11 C4          -1.2040    -2.0730     7.3470 c          1 635       0.623300
     12 O4           0.1260     4.5860     9.7850 os         1 635      -0.351100
     13 C5          -2.5160    -1.3810     7.0290 ce         1 635      -0.207200
     14 O5           5.8220     6.7390    13.7000 os         1 635      -0.458000
     15 C6          -3.0620    -0.5570     7.9540 c2         1 635       0.033600
     16 C7          -5.4270    -0.6250     7.3140 c3         1 635       0.089000
     17 C8          -5.5730    -0.6740     5.7710 c3         1 635       0.016200
     18 C9          -4.3000    -1.1770     5.0650 cd         1 635      -0.119400
     19 C10         -3.0540    -1.4930     5.6520 cc         1 635       0.006900
     20 C11         -2.9300    -1.8290     3.3820 ca         1 635      -0.012200
     21 C12         -4.1990    -1.3900     3.6160 ca         1 635      -0.111800
     22 C13         -5.1040    -1.2120     2.5490 ca         1 635      -0.037000
     23 C14         -4.6640    -1.5150     1.2420 ca         1 635      -0.182000
     24 C15         -3.3500    -1.9770     1.0220 ca         1 635       0.180000
     25 C16         -2.4600    -2.1370     2.0990 ca         1 635      -0.171000
     26 C17         -6.7570    -1.6440     5.4950 c3         1 635      -0.081100
     27 C18         -5.9210     0.7540     5.2670 c3         1 635      -0.081100
     28 C20         -3.2020     2.2610     8.6660 ca         1 635      -0.207600
     29 C21         -3.2560     3.1410     9.7670 ca         1 635      -0.025000
     30 C22         -2.1310     3.9040    10.1240 ca         1 635      -0.185000
     31 C23         -0.9450     3.8170     9.3810 ca         1 635       0.173100
     32 C24         -0.8920     2.9660     8.2590 ca         1 635      -0.185000
     33 C25         -2.0150     2.2020     7.8990 ca         1 635      -0.025000
     34 C26          1.3920     4.5530     9.1030 c3         1 635       0.163600
     35 C27          2.3590     5.5060     9.8330 c3         1 635      -0.079400
     36 C28          2.6800     5.0630    11.2790 c3         1 635       0.168800
     37 C29          4.9190     6.1760    11.4700 c6         1 635       0.125800
     38 C30          5.7790     7.1630    12.3160 c6         1 635       0.152600
     39 C31          4.5050     6.6470    14.2930 c6         1 635       0.152600
     40 C32          3.6210     5.6450    13.4920 c6         1 635       0.125800
     41 H1           1.4730    -2.5570    10.9920 hc         1 635       0.049033
     42 H1A          0.3330    -1.1940    10.9450 hc         1 635       0.049033
     43 H1B         -0.2750    -2.8660    10.9970 hc         1 635       0.049033
     44 H2           0.6870    -3.3140     8.7450 h1         1 635       0.070700
     45 HN2         -1.2910    -2.2090     4.6700 hn         1 635       0.386000
     46 H3           1.6210    -1.4510     7.3460 hc         1 635       0.049033
     47 H3A          1.4090    -0.3080     8.6920 hc         1 635       0.049033
     48 H3B          2.5890    -1.6300     8.8180 hc         1 635       0.049033
     49 H6          -2.6220    -0.3980     8.9420 h4         1 635       0.215000
     50 H7          -5.3220    -1.6530     7.6850 h1         1 635       0.070700
     51 H7A         -6.3500    -0.2340     7.7600 h1         1 635       0.070700
     52 H13         -6.1140    -0.8450     2.6960 ha         1 635       0.116000
     53 H14         -5.3390    -1.3880     0.3990 ha         1 635       0.128000
     54 H16         -1.4440    -2.4850     1.9350 ha         1 635       0.135000
     55 H17         -7.0350    -1.6840     4.4400 hc         1 635       0.039867
     56 H17A        -6.5010    -2.6630     5.8080 hc         1 635       0.039867
     57 H17B        -7.6520    -1.3360     6.0500 hc         1 635       0.039867
     58 H18         -6.1710     0.7670     4.2030 hc         1 635       0.039867
     59 H18A        -6.7830     1.1620     5.8100 hc         1 635       0.039867
     60 H18B        -5.0750     1.4360     5.4150 hc         1 635       0.039867
     61 H21         -4.1660     3.2230    10.3590 ha         1 635       0.129500
     62 H22         -2.1790     4.5680    10.9830 ha         1 635       0.129500
     63 H24          0.0030     2.8900     7.6490 ha         1 635       0.129500
     64 H25         -1.9610     1.5810     7.0060 ha         1 635       0.129500
     65 H26          1.8110     3.5380     9.1020 h1         1 635       0.040700
     66 H26A         1.2770     4.8840     8.0630 h1         1 635       0.040700
     67 H27          3.2840     5.5580     9.2480 hc         1 635       0.063200
     68 H27A         1.9300     6.5150     9.8460 hc         1 635       0.063200
     69 H28          3.1490     4.0700    11.2460 h1         1 635       0.037700
     70 H28A         1.7260     4.9470    11.8120 h1         1 635       0.037700
     71 H29          5.4370     5.2060    11.4250 h1         1 635       0.041200
     72 H29A         4.8710     6.5640    10.4430 h1         1 635       0.041200
     73 H30          5.3530     8.1750    12.2590 h1         1 635       0.053200
     74 H30A         6.8030     7.2010    11.9180 h1         1 635       0.053200
     75 H31          4.6020     6.3110    15.3350 h1         1 635       0.053200
     76 H31A         4.0370     7.6420    14.2960 h1         1 635       0.053200
     77 H32          2.6160     5.6310    13.9370 h1         1 635       0.041200
     78 H32A         4.0400     4.6340    13.6120 h1         1 635       0.041200
     79 C19         -4.4330     1.4560     8.3050 c          1 635       0.626700
@<TRIPOS>BOND
     1     1     5 1   
     2     1    41 1   
     3     1    42 1   
     4     1    43 1   
     5     2    24 1   
     6     3    15 1   
     7     3    16 1   
     8     3    79 1   
     9     4     5 1   
    10     4    11 1   
    11     5     8 1   
    12     5    44 1   
    13     6    19 1   
    14     6    20 1   
    15     6    45 1   
    16     7    11 2   
    17     8    46 1   
    18     8    47 1   
    19     8    48 1   
    20     9    36 1   
    21     9    37 1   
    22     9    40 1   
    23    10    79 2   
    24    11    13 1   
    25    12    31 1   
    26    12    34 1   
    27    13    15 2   
    28    13    19 1   
    29    14    38 1   
    30    14    39 1   
    31    15    49 1   
    32    16    17 1   
    33    16    50 1   
    34    16    51 1   
    35    17    18 1   
    36    17    26 1   
    37    17    27 1   
    38    18    19 2   
    39    18    21 1   
    40    20    21 ar  
    41    20    25 ar  
    42    21    22 ar  
    43    22    23 ar  
    44    22    52 1   
    45    23    24 ar  
    46    23    53 1   
    47    24    25 ar  
    48    25    54 1   
    49    26    55 1   
    50    26    56 1   
    51    26    57 1   
    52    27    58 1   
    53    27    59 1   
    54    27    60 1   
    55    28    29 ar  
    56    28    33 ar  
    57    28    79 1   
    58    29    30 ar  
    59    29    61 1   
    60    30    31 ar  
    61    30    62 1   
    62    31    32 ar  
    63    32    33 ar  
    64    32    63 1   
    65    33    64 1   
    66    34    35 1   
    67    34    65 1   
    68    34    66 1   
    69    35    36 1   
    70    35    67 1   
    71    35    68 1   
    72    36    69 1   
    73    36    70 1   
    74    37    38 1   
    75    37    71 1   
    76    37    72 1   
    77    38    73 1   
    78    38    74 1   
    79    39    40 1   
    80    39    75 1   
    81    39    76 1   
    82    40    77 1   
    83    40    78 1   
@<TRIPOS>SUBSTRUCTURE
     1 635         1 TEMP              0 ****  ****    0 ROOT
