@<TRIPOS>MOLECULE
635
   79    83     1     0     0
SMALL
abcg2


@<TRIPOS>ATOM
      1 C1           0.2950    -2.4320    10.6080 c3         1 635      -0.105600
      2 F1          -2.8710    -2.9290    -0.0430 f          1 635      -0.190000
      3 N1          -4.1680     0.2210     7.7780 n          1 635      -0.321000
      4 O1          -0.8560    -1.7580     8.6440 os         1 635      -0.465100
      5 C2           0.4540    -2.2030     9.1200 c3         1 635       0.181300
      6 N2          -2.2310    -2.1840     4.6860 na         1 635      -0.220700
      7 O2          -0.4600    -2.6030     6.6070 o          1 635      -0.526000
      8 C3           1.4910    -1.1490     8.7770 c3         1 635      -0.105600
      9 N3           3.5100     5.9040    11.9370 n3         1 635      -0.716600
     10 O3          -5.5540     1.7560     8.7450 o          1 635      -0.554100
     11 C4          -1.1730    -1.9540     7.3590 c          1 635       0.623300
     12 O4          -0.1160     4.6780    10.0450 os         1 635      -0.351100
     13 C5          -2.4560    -1.3080     6.9730 ce         1 635      -0.207200
     14 O5           5.9340     6.5260    13.3230 os         1 635      -0.458000
     15 C6          -2.9530    -0.4130     7.8650 c2         1 635       0.033600
     16 C7          -5.2970    -0.5050     7.1910 c3         1 635       0.089000
     17 C8          -5.3850    -0.4400     5.6630 c3         1 635       0.016200
     18 C9          -4.1890    -1.1140     5.0290 cd         1 635      -0.119400
     19 C10         -3.0100    -1.5360     5.6360 cc         1 635       0.006900
     20 C11         -2.8480    -2.1630     3.4760 ca         1 635      -0.012200
     21 C12         -4.0900    -1.4880     3.6390 ca         1 635      -0.111800
     22 C13         -4.8920    -1.3030     2.5010 ca         1 635      -0.037000
     23 C14         -4.4720    -1.7900     1.2740 ca         1 635      -0.182000
     24 C15         -3.2510    -2.4620     1.1810 ca         1 635       0.180000
     25 C16         -2.4090    -2.6670     2.2490 ca         1 635      -0.171000
     26 C17         -6.6840    -1.1980     5.3130 c3         1 635      -0.081100
     27 C18         -5.4980     1.0230     5.2050 c3         1 635      -0.081100
     28 C20         -3.2350     2.2150     8.8650 ca         1 635      -0.207600
     29 C21         -3.2430     2.8810    10.0970 ca         1 635      -0.025000
     30 C22         -2.1870     3.6860    10.4690 ca         1 635      -0.185000
     31 C23         -1.1030     3.8720     9.5990 ca         1 635       0.173100
     32 C24         -1.0990     3.2400     8.3520 ca         1 635      -0.185000
     33 C25         -2.1560     2.4110     8.0020 ca         1 635      -0.025000
     34 C26          1.0180     4.9240     9.1930 c3         1 635       0.163600
     35 C27          2.0020     5.7890     9.9500 c3         1 635      -0.079400
     36 C28          2.6330     5.0590    11.1320 c3         1 635       0.168800
     37 C29          4.7210     6.3070    11.2230 c6         1 635       0.125800
     38 C30          5.5870     7.1860    12.1070 c6         1 635       0.152600
     39 C31          4.7600     6.1340    14.0310 c6         1 635       0.152600
     40 C32          3.8810     5.2340    13.1820 c6         1 635       0.125800
     41 H1           1.2390    -2.7860    11.0250 hc         1 635       0.049033
     42 H1A          0.0210    -1.5040    11.1140 hc         1 635       0.049033
     43 H1B         -0.4720    -3.1810    10.8060 hc         1 635       0.049033
     44 H2           0.6830    -3.1390     8.6130 h1         1 635       0.070700
     45 HN2         -1.3210    -2.5610     4.9100 hn         1 635       0.386000
     46 H3           1.5500    -0.9930     7.7000 hc         1 635       0.049033
     47 H3A          1.2420    -0.2010     9.2590 hc         1 635       0.049033
     48 H3B          2.4710    -1.4710     9.1320 hc         1 635       0.049033
     49 H6          -2.3710    -0.1750     8.7390 h4         1 635       0.215000
     50 H7          -5.2200    -1.5450     7.5100 h1         1 635       0.070700
     51 H7A         -6.1970    -0.0780     7.6230 h1         1 635       0.070700
     52 H13         -5.8300    -0.7710     2.5550 ha         1 635       0.116000
     53 H14         -5.0710    -1.6550     0.3830 ha         1 635       0.128000
     54 H16         -1.4650    -3.1810     2.1350 ha         1 635       0.135000
     55 H17         -6.8940    -1.1740     4.2470 hc         1 635       0.039867
     56 H17A        -6.6150    -2.2430     5.6220 hc         1 635       0.039867
     57 H17B        -7.5300    -0.7400     5.8300 hc         1 635       0.039867
     58 H18         -5.5740     1.0820     4.1190 hc         1 635       0.039867
     59 H18A        -6.3860     1.4910     5.6360 hc         1 635       0.039867
     60 H18B        -4.6200     1.5940     5.5100 hc         1 635       0.039867
     61 H21         -4.0830     2.7490    10.7660 ha         1 635       0.129500
     62 H22         -2.1770     4.1850    11.4290 ha         1 635       0.129500
     63 H24         -0.2890     3.3880     7.6550 ha         1 635       0.129500
     64 H25         -2.1420     1.9330     7.0320 ha         1 635       0.129500
     65 H26          1.4740     3.9690     8.9150 h1         1 635       0.040700
     66 H26A         0.6770     5.4250     8.2840 h1         1 635       0.040700
     67 H27          2.7670     6.0980     9.2350 hc         1 635       0.063200
     68 H27A         1.5010     6.6960    10.2990 hc         1 635       0.063200
     69 H28          3.1750     4.1710    10.7600 h1         1 635       0.037700
     70 H28A         1.8410     4.6950    11.7890 h1         1 635       0.037700
     71 H29          5.3010     5.4230    10.9030 h1         1 635       0.041200
     72 H29A         4.4540     6.8710    10.3280 h1         1 635       0.041200
     73 H30          5.0540     8.1180    12.3370 h1         1 635       0.053200
     74 H30A         6.5220     7.4290    11.6040 h1         1 635       0.053200
     75 H31          5.0920     5.6100    14.9270 h1         1 635       0.053200
     76 H31A         4.1970     7.0290    14.3290 h1         1 635       0.053200
     77 H32          2.9730     4.9860    13.7370 h1         1 635       0.041200
     78 H32A         4.4200     4.2910    12.9800 h1         1 635       0.041200
     79 C19         -4.4130     1.4000     8.4830 c          1 635       0.626700
@<TRIPOS>BOND
     1     1     5 1   
     2     1    41 1   
     3     1    42 1   
     4     1    43 1   
     5     2    24 1   
     6     3    15 1   
     7     3    16 1   
     8     3    79 1   
     9     4     5 1   
    10     4    11 1   
    11     5     8 1   
    12     5    44 1   
    13     6    19 1   
    14     6    20 1   
    15     6    45 1   
    16     7    11 2   
    17     8    46 1   
    18     8    47 1   
    19     8    48 1   
    20     9    36 1   
    21     9    37 1   
    22     9    40 1   
    23    10    79 2   
    24    11    13 1   
    25    12    31 1   
    26    12    34 1   
    27    13    15 2   
    28    13    19 1   
    29    14    38 1   
    30    14    39 1   
    31    15    49 1   
    32    16    17 1   
    33    16    50 1   
    34    16    51 1   
    35    17    18 1   
    36    17    26 1   
    37    17    27 1   
    38    18    19 2   
    39    18    21 1   
    40    20    21 ar  
    41    20    25 ar  
    42    21    22 ar  
    43    22    23 ar  
    44    22    52 1   
    45    23    24 ar  
    46    23    53 1   
    47    24    25 ar  
    48    25    54 1   
    49    26    55 1   
    50    26    56 1   
    51    26    57 1   
    52    27    58 1   
    53    27    59 1   
    54    27    60 1   
    55    28    29 ar  
    56    28    33 ar  
    57    28    79 1   
    58    29    30 ar  
    59    29    61 1   
    60    30    31 ar  
    61    30    62 1   
    62    31    32 ar  
    63    32    33 ar  
    64    32    63 1   
    65    33    64 1   
    66    34    35 1   
    67    34    65 1   
    68    34    66 1   
    69    35    36 1   
    70    35    67 1   
    71    35    68 1   
    72    36    69 1   
    73    36    70 1   
    74    37    38 1   
    75    37    71 1   
    76    37    72 1   
    77    38    73 1   
    78    38    74 1   
    79    39    40 1   
    80    39    75 1   
    81    39    76 1   
    82    40    77 1   
    83    40    78 1   
@<TRIPOS>SUBSTRUCTURE
     1 635         1 TEMP              0 ****  ****    0 ROOT
