@<TRIPOS>MOLECULE
636
   34    35     1     0     0
SMALL
No Charge or Current Charge


@<TRIPOS>ATOM
      1 OX1          3.4030    -1.2280     1.6900 o          1 636      -0.737500
      2 CX0          2.4570    -0.4530     1.7200 c          1 636       0.732600
      3 OX2          1.7030    -0.3680     2.6820 o          1 636      -0.737500
      4 CX1          2.2710     0.4930     0.5560 ca         1 636      -0.174600
      5 CX6          3.4080     0.9380    -0.1550 ca         1 636      -0.063000
      6 CX5          3.2750     1.8240    -1.2320 ca         1 636      -0.198000
      7 CX4          2.0100     2.2920    -1.6050 ca         1 636      -0.095000
      8 CX3          0.8590     1.8660    -0.9150 ca         1 636      -0.132300
      9 C3          -0.4850     2.4730    -1.3240 c3         1 636      -0.028800
     10 CX2          0.9870     0.9350     0.1550 ca         1 636       0.373000
     11 N1          -0.1340     0.4780     0.8510 nu         1 636      -1.001000
     12 CY1         -1.4080     0.0590     0.4650 ca         1 636       0.344000
     13 CY2         -1.6620    -0.6880    -0.7080 ca         1 636      -0.159600
     14 CY0         -0.5560    -1.1640    -1.6010 c          1 636       0.715600
     15 OY1          0.2250    -1.9960    -1.1600 o          1 636      -0.714000
     16 OY2         -0.6050    -0.8560    -2.7840 o          1 636      -0.714000
     17 CY6         -2.4770     0.4030     1.3110 ca         1 636      -0.167000
     18 CY5         -3.8010     0.0490     0.9930 ca         1 636      -0.111300
     19 C5          -4.9460     0.4470     1.9120 c3         1 636      -0.020800
     20 CY4         -4.0520    -0.6650    -0.1890 ca         1 636      -0.182000
     21 CY3         -2.9920    -1.0350    -1.0310 ca         1 636      -0.089000
     22 H2           4.4020     0.6010     0.1330 ha         1 636       0.107000
     23 H3           4.1580     2.1610    -1.7690 ha         1 636       0.066000
     24 H4           1.9260     2.9980    -2.4280 ha         1 636       0.065000
     25 H5          -1.0680     1.7820    -1.9410 hc         1 636       0.026033
     26 H6          -1.0890     2.7430    -0.4490 hc         1 636       0.026033
     27 H7          -0.3500     3.3920    -1.9080 hc         1 636       0.026033
     28 H8           0.1400     0.1410     1.7840 hn         1 636       0.546000
     29 H10         -2.2790     0.9690     2.2180 ha         1 636       0.092000
     30 H11         -5.3220     1.4450     1.6570 hc         1 636       0.012033
     31 H12         -5.7840    -0.2560     1.8360 hc         1 636       0.012033
     32 H13         -4.6270     0.4670     2.9610 hc         1 636       0.012033
     33 H14         -5.0700    -0.9430    -0.4530 ha         1 636       0.067000
     34 H15         -3.1980    -1.6080    -1.9330 ha         1 636       0.103000
@<TRIPOS>BOND
     1     1     2 1   
     2     2     3 1   
     3     2     4 1   
     4     4     5 ar  
     5     4    10 ar  
     6     5     6 ar  
     7     5    22 1   
     8     6     7 ar  
     9     6    23 1   
    10     7     8 ar  
    11     7    24 1   
    12     8     9 1   
    13     8    10 ar  
    14     9    25 1   
    15     9    26 1   
    16     9    27 1   
    17    10    11 1   
    18    11    12 1   
    19    11    28 1   
    20    12    13 ar  
    21    12    17 ar  
    22    13    14 1   
    23    13    21 ar  
    24    14    15 1   
    25    14    16 1   
    26    17    18 ar  
    27    17    29 1   
    28    18    19 1   
    29    18    20 ar  
    30    19    30 1   
    31    19    31 1   
    32    19    32 1   
    33    20    21 ar  
    34    20    33 1   
    35    21    34 1   
@<TRIPOS>SUBSTRUCTURE
     1 636         1 TEMP              0 ****  ****    0 ROOT
