@<TRIPOS>MOLECULE
636
   34    35     1     0     0
SMALL
abcg2


@<TRIPOS>ATOM
      1 OX1          3.5870    -0.9120     1.9160 o          1 636      -0.737500
      2 CX0          2.4670    -0.3880     1.7950 c          1 636       0.732600
      3 OX2          1.5280    -0.5070     2.6270 o          1 636      -0.737500
      4 CX1          2.2280     0.4790     0.5700 ca         1 636      -0.174600
      5 CX6          3.3330     0.8530    -0.1870 ca         1 636      -0.063000
      6 CX5          3.2080     1.6580    -1.3050 ca         1 636      -0.198000
      7 CX4          1.9490     2.1220    -1.6570 ca         1 636      -0.095000
      8 CX3          0.8130     1.7830    -0.9340 ca         1 636      -0.132300
      9 C3          -0.5010     2.4010    -1.3170 c3         1 636      -0.028800
     10 CX2          0.9450     0.9200     0.1740 ca         1 636       0.373000
     11 N1          -0.1470     0.5830     0.9510 nu         1 636      -1.001000
     12 CY1         -1.3960     0.1520     0.4950 ca         1 636       0.344000
     13 CY2         -1.6110    -0.5000    -0.7260 ca         1 636      -0.159600
     14 CY0         -0.5000    -1.0180    -1.6260 c          1 636       0.715600
     15 OY1          0.3970    -1.6670    -1.0610 o          1 636      -0.714000
     16 OY2         -0.6270    -0.8110    -2.8490 o          1 636      -0.714000
     17 CY6         -2.4850     0.4040     1.3370 ca         1 636      -0.167000
     18 CY5         -3.7820     0.0390     1.0050 ca         1 636      -0.111300
     19 C5          -4.9270     0.3310     1.9330 c3         1 636      -0.020800
     20 CY4         -3.9960    -0.5570    -0.2370 ca         1 636      -0.182000
     21 CY3         -2.9250    -0.8010    -1.0810 ca         1 636      -0.089000
     22 H2           4.3100     0.4990     0.1140 ha         1 636       0.107000
     23 H3           4.0790     1.9420    -1.8830 ha         1 636       0.066000
     24 H4           1.8440     2.7910    -2.5040 ha         1 636       0.065000
     25 H5          -1.1250     1.7200    -1.8980 hc         1 636       0.026033
     26 H6          -1.0810     2.7000    -0.4430 hc         1 636       0.026033
     27 H7          -0.3340     3.2920    -1.9230 hc         1 636       0.026033
     28 H8           0.1750     0.1540     1.8280 hn         1 636       0.546000
     29 H10         -2.2970     0.9130     2.2770 ha         1 636       0.092000
     30 H11         -5.4270     1.2630     1.6620 hc         1 636       0.012033
     31 H12         -5.6790    -0.4570     1.8970 hc         1 636       0.012033
     32 H13         -4.5930     0.4310     2.9650 hc         1 636       0.012033
     33 H14         -4.9990    -0.8350    -0.5400 ha         1 636       0.067000
     34 H15         -3.1090    -1.2790    -2.0360 ha         1 636       0.103000
@<TRIPOS>BOND
     1     1     2 1   
     2     2     3 1   
     3     2     4 1   
     4     4     5 ar  
     5     4    10 ar  
     6     5     6 ar  
     7     5    22 1   
     8     6     7 ar  
     9     6    23 1   
    10     7     8 ar  
    11     7    24 1   
    12     8     9 1   
    13     8    10 ar  
    14     9    25 1   
    15     9    26 1   
    16     9    27 1   
    17    10    11 1   
    18    11    12 1   
    19    11    28 1   
    20    12    13 ar  
    21    12    17 ar  
    22    13    14 1   
    23    13    21 ar  
    24    14    15 1   
    25    14    16 1   
    26    17    18 ar  
    27    17    29 1   
    28    18    19 1   
    29    18    20 ar  
    30    19    30 1   
    31    19    31 1   
    32    19    32 1   
    33    20    21 ar  
    34    20    33 1   
    35    21    34 1   
@<TRIPOS>SUBSTRUCTURE
     1 636         1 TEMP              0 ****  ****    0 ROOT
