@<TRIPOS>MOLECULE
637
   62    66     1     0     0
SMALL
No Charge or Current Charge


@<TRIPOS>ATOM
      1 C1          -3.5830    -1.8360     0.4410 c5         1 637       0.319300
      2 C2          -4.1780    -1.5020    -0.9680 c5         1 637       0.140300
      3 O3          -5.4330    -2.1450    -1.2370 oh         1 637      -0.702000
      4 C4          -3.0920    -2.1220    -1.8920 c5         1 637       0.098300
      5 O5          -3.6640    -2.4820    -3.1670 oh         1 637      -0.708000
      6 C6          -2.5920    -3.3630    -1.0580 c5         1 637       0.162500
      7 C7           0.4080     2.4320     2.6080 c3         1 637      -0.151400
      8 N8          -0.6210    -0.4730     2.2180 nc         1 637      -0.565100
      9 C9          -1.4310    -1.4510     1.7790 cd         1 637       0.428700
     10 N10         -2.4820    -1.0060     0.9560 na         1 637      -0.316300
     11 C11         -2.3140     0.3580     0.9130 ca         1 637       0.100500
     12 C12         -1.1980     0.6550     1.6620 ca         1 637      -0.032600
     13 O13         -3.1150    -3.1950     0.2840 os         1 637      -0.430000
     14 C14         -1.0650    -3.3480    -0.9830 c2         1 637      -0.242200
     15 C15         -0.4190    -4.0430    -0.0250 c2         1 637      -0.216200
     16 C16          1.0740    -4.0200     0.2150 c3         1 637       0.128200
     17 N17          1.5200    -2.6300     0.2300 ns         1 637      -0.484900
     18 C18          2.5810    -2.1340     0.9440 c          1 637       0.630700
     19 O19          3.2830    -2.8570     1.6410 o          1 637      -0.647100
     20 C20          2.8390    -0.6470     0.8190 ca         1 637      -0.231600
     21 C21          2.1180     0.1520    -0.1060 ca         1 637      -0.067000
     22 C22          2.3300     1.5500    -0.2230 cp         1 637      -0.042000
     23 C23          3.3030     2.1430     0.6170 ca         1 637      -0.087000
     24 C24          1.5420     2.3720    -1.2020 cp         1 637      -0.050000
     25 C25          2.0990     3.5310    -1.8050 ca         1 637      -0.077000
     26 C26          1.3570     4.3060    -2.7150 ca         1 637      -0.155500
     27 C27          0.2120     2.0200    -1.5580 ca         1 637      -0.077000
     28 C28         -0.5290     2.7960    -2.4660 ca         1 637      -0.155500
     29 C29          0.0450     3.9370    -3.0400 ca         1 637       0.171000
     30 F30         -0.6670     4.6830    -3.9120 f          1 637      -0.180000
     31 C31          3.8080    -0.0180     1.6300 ca         1 637       0.133100
     32 O32          4.5380    -0.7490     2.5270 oh         1 637      -0.573100
     33 C33          4.0340     1.3700     1.5290 ca         1 637       0.098100
     34 O34          4.9690     1.9610     2.3320 oh         1 637      -0.533100
     35 C35         -0.7990     2.0040     1.7910 ca         1 637       0.199300
     36 N38         -1.5140     2.9830     1.1920 nb         1 637      -0.207000
     37 C39         -2.5960     2.5910     0.4790 ca         1 637       0.141900
     38 N40         -3.0360     1.3230     0.3080 nb         1 637      -0.177000
     39 H1          -4.3700    -1.7900     1.2050 h2         1 637       0.134700
     40 H2          -4.2670    -0.4200    -1.1320 h1         1 637       0.077700
     41 HO3         -5.2740    -2.5160    -2.1440 ho         1 637       0.533000
     42 H4          -2.2810    -1.3920    -2.0320 h1         1 637       0.051700
     43 HO5         -2.9170    -2.7040    -3.7750 ho         1 637       0.521000
     44 H6          -2.9710    -4.3110    -1.4660 h1         1 637       0.093700
     45 H7           0.9050     3.3000     2.1600 hc         1 637       0.064367
     46 H7A          0.1110     2.7010     3.6280 hc         1 637       0.064367
     47 H7B          1.1490     1.6280     2.6770 hc         1 637       0.064367
     48 H9          -1.3300    -2.4990     2.0350 h5         1 637       0.070800
     49 H14         -0.4930    -2.7550    -1.6980 ha         1 637       0.172000
     50 H15         -0.9720    -4.6510     0.6960 ha         1 637       0.204000
     51 H16          1.3120    -4.4970     1.1760 h1         1 637       0.070200
     52 H16A         1.6010    -4.5610    -0.5830 h1         1 637       0.070200
     53 HN17         0.9680    -1.9550    -0.2780 hn         1 637       0.321500
     54 H21          1.3910    -0.3070    -0.7680 ha         1 637       0.110000
     55 H23          3.4850     3.2130     0.5770 ha         1 637       0.135000
     56 H25          3.1210     3.8270    -1.5790 ha         1 637       0.132000
     57 H26          1.8000     5.1890    -3.1680 ha         1 637       0.131500
     58 H27         -0.2610     1.1480    -1.1150 ha         1 637       0.132000
     59 H28         -1.5480     2.5150    -2.7210 ha         1 637       0.131500
     60 HO32         4.2450    -1.6940     2.4050 ho         1 637       0.531000
     61 HO34         5.3510     1.2400     2.8830 ho         1 637       0.487000
     62 H39         -3.1710     3.3770    -0.0070 h5         1 637       0.054100
@<TRIPOS>BOND
     1     1     2 1   
     2     1    10 1   
     3     1    13 1   
     4     1    39 1   
     5     2     3 1   
     6     2     4 1   
     7     2    40 1   
     8     3    41 1   
     9     4     5 1   
    10     4     6 1   
    11     4    42 1   
    12     5    43 1   
    13     6    13 1   
    14     6    14 1   
    15     6    44 1   
    16     7    35 1   
    17     7    45 1   
    18     7    46 1   
    19     7    47 1   
    20     8     9 2   
    21     8    12 1   
    22     9    10 1   
    23     9    48 1   
    24    10    11 1   
    25    11    12 ar  
    26    11    38 ar  
    27    12    35 ar  
    28    14    15 2   
    29    14    49 1   
    30    15    16 1   
    31    15    50 1   
    32    16    17 1   
    33    16    51 1   
    34    16    52 1   
    35    17    18 1   
    36    17    53 1   
    37    18    19 2   
    38    18    20 1   
    39    20    21 ar  
    40    20    31 ar  
    41    21    22 ar  
    42    21    54 1   
    43    22    23 ar  
    44    22    24 1   
    45    23    33 ar  
    46    23    55 1   
    47    24    25 ar  
    48    24    27 ar  
    49    25    26 ar  
    50    25    56 1   
    51    26    29 ar  
    52    26    57 1   
    53    27    28 ar  
    54    27    58 1   
    55    28    29 ar  
    56    28    59 1   
    57    29    30 1   
    58    31    32 1   
    59    31    33 ar  
    60    32    60 1   
    61    33    34 1   
    62    34    61 1   
    63    35    36 ar  
    64    36    37 ar  
    65    37    38 ar  
    66    37    62 1   
@<TRIPOS>SUBSTRUCTURE
     1 637         1 TEMP              0 ****  ****    0 ROOT
