@<TRIPOS>MOLECULE
637
   62    66     1     0     0
SMALL
abcg2


@<TRIPOS>ATOM
      1 C1          -3.6910    -1.9310     0.5860 c5         1 637       0.319300
      2 C2          -4.4500    -2.0960    -0.7280 c5         1 637       0.140300
      3 O3          -5.5350    -2.9410    -0.4620 oh         1 637      -0.702000
      4 C4          -3.3950    -2.7840    -1.5930 c5         1 637       0.098300
      5 O5          -3.9940    -3.4780    -2.6450 oh         1 637      -0.708000
      6 C6          -2.6890    -3.6900    -0.5620 c5         1 637       0.162500
      7 C7          -1.5480     3.8010     1.1730 c3         1 637      -0.151400
      8 N8          -1.2380     0.7630     0.4030 nc         1 637      -0.565100
      9 C9          -1.6250    -0.4680     0.2540 cd         1 637       0.428700
     10 N10         -2.9260    -0.6870     0.6170 na         1 637      -0.316300
     11 C11         -3.4050     0.5190     1.0320 ca         1 637       0.100500
     12 C12         -2.3410     1.4150     0.8940 ca         1 637      -0.032600
     13 O13         -2.8280    -3.0200     0.6880 os         1 637      -0.430000
     14 C14         -1.2540    -3.9400    -0.8890 c2         1 637      -0.242200
     15 C15         -0.2280    -3.7480    -0.0700 c2         1 637      -0.216200
     16 C16          1.2050    -3.9160    -0.4730 c3         1 637       0.128200
     17 N17          1.9090    -2.6510    -0.3540 ns         1 637      -0.484900
     18 C18          2.6120    -2.2880     0.7200 c          1 637       0.630700
     19 O19          2.8250    -3.0710     1.6580 o          1 637      -0.647100
     20 C20          3.1620    -0.9090     0.7630 ca         1 637      -0.231600
     21 C21          2.7040     0.1200    -0.0670 ca         1 637      -0.067000
     22 C22          3.2460     1.3920     0.0000 cp         1 637      -0.042000
     23 C23          4.2770     1.6360     0.9150 ca         1 637      -0.087000
     24 C24          2.7430     2.4760    -0.8660 cp         1 637      -0.050000
     25 C25          3.6170     3.3990    -1.4420 ca         1 637      -0.077000
     26 C26          3.1520     4.4180    -2.2590 ca         1 637      -0.155500
     27 C27          1.3770     2.6040    -1.1270 ca         1 637      -0.077000
     28 C28          0.8960     3.6150    -1.9460 ca         1 637      -0.155500
     29 C29          1.7940     4.5060    -2.4990 ca         1 637       0.171000
     30 F30          1.3350     5.4870    -3.2930 f          1 637      -0.180000
     31 C31          4.1630    -0.6400     1.7020 ca         1 637       0.133100
     32 O32          4.6300    -1.5410     2.5730 oh         1 637      -0.573100
     33 C33          4.7350     0.6420     1.7550 ca         1 637       0.098100
     34 O34          5.7140     0.9240     2.6350 oh         1 637      -0.533100
     35 C35         -2.5800     2.7320     1.2720 ca         1 637       0.199300
     36 N38         -3.7930     3.0400     1.7290 nb         1 637      -0.207000
     37 C39         -4.7270     2.0940     1.8090 ca         1 637       0.141900
     38 N40         -4.6120     0.8150     1.4800 nb         1 637      -0.177000
     39 H1          -4.3700    -1.9010     1.4410 h2         1 637       0.134700
     40 H2          -4.7660    -1.1320    -1.1430 h1         1 637       0.077700
     41 HO3         -5.9010    -3.2450    -1.3000 ho         1 637       0.533000
     42 H4          -2.6920    -2.0290    -1.9700 h1         1 637       0.051700
     43 HO5         -3.3400    -3.6490    -3.3290 ho         1 637       0.521000
     44 H6          -3.2290    -4.6450    -0.5190 h1         1 637       0.093700
     45 H7          -1.6450     4.3290     0.2210 hc         1 637       0.064367
     46 H7A         -1.6730     4.5320     1.9690 hc         1 637       0.064367
     47 H7B         -0.5410     3.3900     1.2140 hc         1 637       0.064367
     48 H9          -0.9960    -1.2660    -0.1130 h5         1 637       0.070800
     49 H14         -1.0760    -4.2970    -1.9010 ha         1 637       0.172000
     50 H15         -0.3900    -3.4120     0.9500 ha         1 637       0.204000
     51 H16          1.7050    -4.6540     0.1540 h1         1 637       0.070200
     52 H16A         1.2860    -4.2550    -1.5050 h1         1 637       0.070200
     53 HN17         1.8000    -2.0040    -1.1170 hn         1 637       0.321500
     54 H21          1.9120    -0.0630    -0.7820 ha         1 637       0.110000
     55 H23          4.7080     2.6260     1.0010 ha         1 637       0.135000
     56 H25          4.6830     3.3190    -1.2670 ha         1 637       0.132000
     57 H26          3.8370     5.1260    -2.7080 ha         1 637       0.131500
     58 H27          0.6680     1.9270    -0.6640 ha         1 637       0.132000
     59 H28         -0.1650     3.7120    -2.1390 ha         1 637       0.131500
     60 HO32         4.0560    -2.3420     2.4850 ho         1 637       0.531000
     61 HO34         5.9010     0.1560     3.1880 ho         1 637       0.487000
     62 H39         -5.6920     2.4070     2.1890 h5         1 637       0.054100
@<TRIPOS>BOND
     1     1     2 1   
     2     1    10 1   
     3     1    13 1   
     4     1    39 1   
     5     2     3 1   
     6     2     4 1   
     7     2    40 1   
     8     3    41 1   
     9     4     5 1   
    10     4     6 1   
    11     4    42 1   
    12     5    43 1   
    13     6    13 1   
    14     6    14 1   
    15     6    44 1   
    16     7    35 1   
    17     7    45 1   
    18     7    46 1   
    19     7    47 1   
    20     8     9 2   
    21     8    12 1   
    22     9    10 1   
    23     9    48 1   
    24    10    11 1   
    25    11    12 ar  
    26    11    38 ar  
    27    12    35 ar  
    28    14    15 2   
    29    14    49 1   
    30    15    16 1   
    31    15    50 1   
    32    16    17 1   
    33    16    51 1   
    34    16    52 1   
    35    17    18 1   
    36    17    53 1   
    37    18    19 2   
    38    18    20 1   
    39    20    21 ar  
    40    20    31 ar  
    41    21    22 ar  
    42    21    54 1   
    43    22    23 ar  
    44    22    24 1   
    45    23    33 ar  
    46    23    55 1   
    47    24    25 ar  
    48    24    27 ar  
    49    25    26 ar  
    50    25    56 1   
    51    26    29 ar  
    52    26    57 1   
    53    27    28 ar  
    54    27    58 1   
    55    28    29 ar  
    56    28    59 1   
    57    29    30 1   
    58    31    32 1   
    59    31    33 ar  
    60    32    60 1   
    61    33    34 1   
    62    34    61 1   
    63    35    36 ar  
    64    36    37 ar  
    65    37    38 ar  
    66    37    62 1   
@<TRIPOS>SUBSTRUCTURE
     1 637         1 TEMP              0 ****  ****    0 ROOT
