@<TRIPOS>MOLECULE
639
   47    50     1     0     0
SMALL
abcg2


@<TRIPOS>ATOM
      1 CBD         -4.9160    -0.3680     0.1540 ca         1 639       0.340000
      2 CBC          2.8040     0.0050     0.8960 ca         1 639      -0.036300
      3 NAW          0.8620    -1.3920     0.5090 nu         1 639      -0.939900
      4 CAG         -7.2790    -0.7910     0.4500 ca         1 639      -0.041000
      5 CAK          4.1570     0.3150     0.5790 ca         1 639      -0.016000
      6 NAT         -2.3030     0.8230    -0.5520 nb         1 639      -0.297000
      7 CBE         -2.4150    -0.3530     0.0640 ca         1 639       0.432900
      8 CAZ          4.8740    -0.5150    -0.3200 ca         1 639      -0.040000
      9 NAS         -1.3970    -1.1220     0.4310 nb         1 639      -0.351000
     10 CBF         -0.1920    -0.6400     0.1420 ca         1 639       0.431900
     11 CAJ          4.2350    -1.6320    -0.9010 ca         1 639      -0.091000
     12 NAV         -3.6390    -0.8560     0.3680 nu         1 639      -0.921900
     13 NAU          0.0370     0.5230    -0.4820 nb         1 639      -0.281000
     14 CBB          2.9250    -1.9130    -0.6350 ca         1 639      -0.075300
     15 NAD        -10.0240     1.1600    -0.4910 n1         1 639      -0.458000
     16 CBG         -1.0540     1.1890    -0.7910 ca         1 639       0.204900
     17 CBH          2.2130    -1.0680     0.2640 ca         1 639       0.290000
     18 CCA          4.8220     1.4350     1.1360 ca         1 639      -0.096000
     19 CCB          6.1220     1.7180     0.8280 ca         1 639      -0.081000
     20 CCC          6.8280     0.8770    -0.0640 ca         1 639      -0.013000
     21 CAA          6.2160    -0.2160    -0.6270 ca         1 639      -0.053000
     22 CCD          8.1870     1.1700    -0.3820 cg         1 639       0.322000
     23 CAC          2.0660     0.8360     1.9010 c3         1 639      -0.047800
     24 CAI         -5.9680    -1.1760     0.6110 ca         1 639      -0.159500
     25 CBA         -7.5760     0.4210    -0.1780 ca         1 639      -0.054000
     26 CAH         -5.2180     0.8470    -0.4720 ca         1 639      -0.159500
     27 CAF         -6.5360     1.2290    -0.6330 ca         1 639      -0.041000
     28 CAE         -8.9290     0.8280    -0.3500 cg         1 639       0.329000
     29 H1           0.6440    -2.3160     0.8550 hn         1 639       0.517000
     30 H2          -8.0750    -1.4300     0.8090 ha         1 639       0.126500
     31 H3           4.7960    -2.2600    -1.5820 ha         1 639       0.121000
     32 H4          -3.5920    -1.7480     0.8400 hn         1 639       0.513000
     33 H5          -0.9190     2.1390    -1.2980 h5         1 639       0.053100
     34 H6           4.2960     2.0940     1.8120 ha         1 639       0.122000
     35 H7           6.6130     2.5790     1.2590 ha         1 639       0.127000
     36 H8           6.7580    -0.8560    -1.3110 ha         1 639       0.126000
     37 H9           1.8770    -3.7960    -0.5370 hc         1 639       0.047367
     38 H10          1.3670    -2.7570    -1.8560 hc         1 639       0.047367
     39 H11          2.9110    -3.6040    -1.9480 hc         1 639       0.047367
     40 H12          1.7810     1.8030     1.4840 hc         1 639       0.050033
     41 H13          1.1590     0.3450     2.2430 hc         1 639       0.050033
     42 H14          2.6810     1.0260     2.7810 hc         1 639       0.050033
     43 H15         -5.7480    -2.1170     1.0990 ha         1 639       0.138500
     44 H16         -4.4300     1.4880    -0.8310 ha         1 639       0.138500
     45 H17         -6.7570     2.1690    -1.1200 ha         1 639       0.126500
     46 CAB          2.2350    -3.0780    -1.2780 c3         1 639      -0.049800
     47 NAB          9.2860     1.4100    -0.6350 n1         1 639      -0.449000
@<TRIPOS>BOND
     1     1    12 1   
     2     1    24 ar  
     3     1    26 ar  
     4     2     5 ar  
     5     2    17 ar  
     6     2    23 1   
     7     3    10 1   
     8     3    17 1   
     9     3    29 1   
    10     4    24 ar  
    11     4    25 ar  
    12     4    30 1   
    13     5     8 ar  
    14     5    18 ar  
    15     6     7 ar  
    16     6    16 ar  
    17     7     9 ar  
    18     7    12 1   
    19     8    11 ar  
    20     8    21 ar  
    21     9    10 ar  
    22    10    13 ar  
    23    11    14 ar  
    24    11    31 1   
    25    12    32 1   
    26    13    16 ar  
    27    14    17 ar  
    28    14    46 1   
    29    15    28 3   
    30    16    33 1   
    31    18    19 ar  
    32    18    34 1   
    33    19    20 ar  
    34    19    35 1   
    35    20    21 ar  
    36    20    22 1   
    37    21    36 1   
    38    22    47 3   
    39    23    40 1   
    40    23    41 1   
    41    23    42 1   
    42    24    43 1   
    43    25    27 ar  
    44    25    28 1   
    45    26    27 ar  
    46    26    44 1   
    47    27    45 1   
    48    37    46 1   
    49    38    46 1   
    50    39    46 1   
@<TRIPOS>SUBSTRUCTURE
     1 639         1 TEMP              0 ****  ****    0 ROOT
