@<TRIPOS>MOLECULE
639
   47    50     1     0     0
SMALL
No Charge or Current Charge


@<TRIPOS>ATOM
      1 CBD         -5.0550    -0.4220     0.1570 ca         1 639       0.340000
      2 CBC          2.9170     0.0670     0.8620 ca         1 639      -0.036300
      3 NAW          0.8530    -1.1930     0.3250 nu         1 639      -0.939900
      4 CAG         -7.3920    -0.6410     0.8350 ca         1 639      -0.041000
      5 CAK          4.3000     0.2850     0.6050 ca         1 639      -0.016000
      6 NAT         -2.4530     1.0590    -0.3630 nb         1 639      -0.297000
      7 CBE         -2.4980    -0.2110     0.0760 ca         1 639       0.432900
      8 CAZ          4.9850    -0.5490    -0.3080 ca         1 639      -0.040000
      9 NAS         -1.4360    -0.9860     0.3320 nb         1 639      -0.351000
     10 CBF         -0.2550    -0.4010     0.0990 ca         1 639       0.431900
     11 CAJ          4.3070    -1.5850    -0.9650 ca         1 639      -0.091000
     12 NAV         -3.7220    -0.7940     0.3520 nu         1 639      -0.921900
     13 NAU         -0.0710     0.8490    -0.3620 nb         1 639      -0.281000
     14 CBB          2.9370    -1.7980    -0.7450 ca         1 639      -0.075300
     15 NAD        -10.2950     0.8560    -0.4950 n1         1 639      -0.458000
     16 CBG         -1.2100     1.5380    -0.5720 ca         1 639       0.204900
     17 CBH          2.2290    -0.9630     0.1540 ca         1 639       0.290000
     18 CCA          5.0250     1.3240     1.2410 ca         1 639      -0.096000
     19 CCB          6.3920     1.5160     0.9760 ca         1 639      -0.081000
     20 CCC          7.0630     0.6760     0.0720 ca         1 639      -0.013000
     21 CAA          6.3550    -0.3550    -0.5690 ca         1 639      -0.053000
     22 CCD          8.4620     0.8710    -0.1990 cg         1 639       0.322000
     23 CAC          2.1960     0.9140     1.9260 c3         1 639      -0.047800
     24 CAI         -6.0350    -0.9740     0.9980 ca         1 639      -0.159500
     25 CBA         -7.7820     0.2460    -0.1860 ca         1 639      -0.054000
     26 CAH         -5.4510     0.4530    -0.8730 ca         1 639      -0.159500
     27 CAF         -6.8070     0.7890    -1.0430 ca         1 639      -0.041000
     28 CAE         -9.1670     0.5870    -0.3580 cg         1 639       0.329000
     29 H1           0.6030    -2.1790     0.3700 hn         1 639       0.517000
     30 H2          -8.1370    -1.0730     1.5010 ha         1 639       0.126500
     31 H3           4.8460    -2.2230    -1.6620 ha         1 639       0.121000
     32 H4          -3.6130    -1.6570     0.8820 hn         1 639       0.513000
     33 H5          -1.1200     2.5590    -0.9370 h5         1 639       0.053100
     34 H6           4.5480     2.0060     1.9390 ha         1 639       0.122000
     35 H7           6.9270     2.3210     1.4760 ha         1 639       0.127000
     36 H8           6.8710    -1.0060    -1.2720 ha         1 639       0.126000
     37 H9           1.8580    -3.6920    -0.8220 hc         1 639       0.047367
     38 H10          1.3910    -2.5420    -2.0910 hc         1 639       0.047367
     39 H11          2.9140    -3.4250    -2.2120 hc         1 639       0.047367
     40 H12          2.0310     1.9370     1.5690 hc         1 639       0.050033
     41 H13          1.2240     0.5060     2.2220 hc         1 639       0.050033
     42 H14          2.7790     0.9670     2.8520 hc         1 639       0.050033
     43 H15         -5.7470    -1.6580     1.7910 ha         1 639       0.138500
     44 H16         -4.7200     0.8630    -1.5600 ha         1 639       0.138500
     45 H17         -7.0960     1.4670    -1.8440 ha         1 639       0.126500
     46 CAB          2.2370    -2.9250    -1.5080 c3         1 639      -0.049800
     47 NAB          9.5980     1.0220    -0.4240 n1         1 639      -0.449000
@<TRIPOS>BOND
     1     1    12 1   
     2     1    24 ar  
     3     1    26 ar  
     4     2     5 ar  
     5     2    17 ar  
     6     2    23 1   
     7     3    10 1   
     8     3    17 1   
     9     3    29 1   
    10     4    24 ar  
    11     4    25 ar  
    12     4    30 1   
    13     5     8 ar  
    14     5    18 ar  
    15     6     7 ar  
    16     6    16 ar  
    17     7     9 ar  
    18     7    12 1   
    19     8    11 ar  
    20     8    21 ar  
    21     9    10 ar  
    22    10    13 ar  
    23    11    14 ar  
    24    11    31 1   
    25    12    32 1   
    26    13    16 ar  
    27    14    17 ar  
    28    14    46 1   
    29    15    28 3   
    30    16    33 1   
    31    18    19 ar  
    32    18    34 1   
    33    19    20 ar  
    34    19    35 1   
    35    20    21 ar  
    36    20    22 1   
    37    21    36 1   
    38    22    47 3   
    39    23    40 1   
    40    23    41 1   
    41    23    42 1   
    42    24    43 1   
    43    25    27 ar  
    44    25    28 1   
    45    26    27 ar  
    46    26    44 1   
    47    27    45 1   
    48    37    46 1   
    49    38    46 1   
    50    39    46 1   
@<TRIPOS>SUBSTRUCTURE
     1 639         1 TEMP              0 ****  ****    0 ROOT
