@<TRIPOS>MOLECULE
63A
   53    56     1     0     0
SMALL
No Charge or Current Charge


@<TRIPOS>ATOM
      1 N3           3.0960    -0.9820    -1.0840 n          1 63A      -0.426800
      2 C4           3.4090     0.1930    -0.2380 c5         1 63A       0.112000
      3 C5           3.0410    -0.3120     1.1890 c5         1 63A      -0.151700
      4 C6           4.2390    -0.9370     1.9650 c3         1 63A       0.306000
      5 C10          3.5000    -1.1210    -2.4260 c          1 63A       0.608100
      6 C20         -4.0990    -1.7940    -0.2400 ca         1 63A       0.184500
      7 C21         -2.7990    -2.1400     0.0070 ca         1 63A      -0.261800
      8 C22         -2.6970    -3.5690     0.0070 cc         1 63A      -0.168200
      9 C26         -3.2710     2.9480    -0.0270 cc         1 63A       0.203000
     10 C1           1.8360    -1.2720     0.8910 c5         1 63A      -0.076700
     11 C2           2.3220    -2.0270    -0.3790 c5         1 63A       0.104000
     12 F7           3.8440    -1.4290     3.1610 f          1 63A      -0.112333
     13 F8           4.8390    -1.9460     1.2940 f          1 63A      -0.112333
     14 F9           5.1900    -0.0080     2.2160 f          1 63A      -0.112333
     15 C11          4.2830     0.0390    -3.0760 c3         1 63A      -0.154400
     16 C12          4.6030    -0.1220    -4.5800 c3         1 63A      -0.076100
     17 O13          3.2310    -2.1390    -3.0500 o          1 63A      -0.595100
     18 C14          0.4930    -0.5300     0.6680 c3         1 63A       0.171600
     19 O15         -0.5290    -1.5210     0.4550 os         1 63A      -0.451300
     20 C16         -1.8310    -1.1480     0.2090 ca         1 63A       0.440300
     21 N17         -2.1950     0.1500     0.1550 nb         1 63A      -0.346000
     22 C18         -3.4930     0.4000    -0.0960 ca         1 63A       0.443900
     23 N19         -4.4720    -0.5040    -0.2950 nb         1 63A      -0.293000
     24 C23         -3.9700    -4.0520    -0.2460 cd         1 63A      -0.192100
     25 N24         -4.8490    -2.9480    -0.4010 na         1 63A      -0.323400
     26 N25         -3.9080     1.7210    -0.1530 nu         1 63A      -0.904900
     27 C27         -3.8590     4.1690     0.0320 cd         1 63A      -0.238000
     28 N28         -2.8000     5.0780     0.1570 na         1 63A       0.142800
     29 N29         -1.5550     4.4630     0.1760 nd         1 63A      -0.524800
     30 C30         -1.8760     3.1870     0.0630 cc         1 63A       0.240900
     31 C31         -2.9160     6.5400     0.2610 c3         1 63A       0.076900
     32 H1           4.4620     0.4950    -0.3080 h1         1 63A       0.058700
     33 H2           2.7880     1.0510    -0.5310 h1         1 63A       0.058700
     34 H3           2.7160     0.5310     1.8100 hc         1 63A       0.096700
     35 H4          -1.8030    -4.1710     0.1720 ha         1 63A       0.214000
     36 H5           1.6600    -1.9690     1.7190 hc         1 63A       0.091700
     37 H6           1.4860    -2.4050    -0.9840 h1         1 63A       0.073200
     38 H7           2.9630    -2.8810    -0.1250 h1         1 63A       0.073200
     39 H8           3.7420     0.9720    -2.8800 hc         1 63A       0.055200
     40 H9           5.1970     0.1950    -2.4920 hc         1 63A       0.055200
     41 H10          5.1570     0.7500    -4.9490 hc         1 63A       0.042700
     42 H11          5.2170    -1.0150    -4.7530 hc         1 63A       0.042700
     43 H12          3.6810    -0.2150    -5.1660 hc         1 63A       0.042700
     44 H13          0.2630     0.0770     1.5540 h1         1 63A       0.057200
     45 H14          0.5750     0.1390    -0.1990 h1         1 63A       0.057200
     46 H15         -4.3120    -5.0830    -0.3260 h4         1 63A       0.218000
     47 H16         -5.8450    -2.9840    -0.5940 hn         1 63A       0.361000
     48 H17         -4.9170     1.8000    -0.2850 hn         1 63A       0.513000
     49 H18         -4.8990     4.4650    -0.0000 h4         1 63A       0.155000
     50 H19         -1.0750     2.4620     0.0450 h4         1 63A       0.051100
     51 H20         -2.4720     6.8760     1.2050 h1         1 63A       0.056033
     52 H21         -2.3890     7.0090    -0.5780 h1         1 63A       0.056033
     53 H22         -3.9720     6.8310     0.2340 h1         1 63A       0.056033
@<TRIPOS>BOND
     1     1     2 1   
     2     1     5 1   
     3     1    11 1   
     4     2     3 1   
     5     2    32 1   
     6     2    33 1   
     7     3     4 1   
     8     3    10 1   
     9     3    34 1   
    10     4    12 1   
    11     4    13 1   
    12     4    14 1   
    13     5    15 1   
    14     5    17 2   
    15     6     7 ar  
    16     6    23 ar  
    17     6    25 1   
    18     7     8 1   
    19     7    20 ar  
    20     8    24 2   
    21     8    35 1   
    22     9    26 1   
    23     9    27 2   
    24     9    30 1   
    25    10    11 1   
    26    10    18 1   
    27    10    36 1   
    28    11    37 1   
    29    11    38 1   
    30    15    16 1   
    31    15    39 1   
    32    15    40 1   
    33    16    41 1   
    34    16    42 1   
    35    16    43 1   
    36    18    19 1   
    37    18    44 1   
    38    18    45 1   
    39    19    20 1   
    40    20    21 ar  
    41    21    22 ar  
    42    22    23 ar  
    43    22    26 1   
    44    24    25 1   
    45    24    46 1   
    46    25    47 1   
    47    26    48 1   
    48    27    28 1   
    49    27    49 1   
    50    28    29 1   
    51    28    31 1   
    52    29    30 2   
    53    30    50 1   
    54    31    51 1   
    55    31    52 1   
    56    31    53 1   
@<TRIPOS>SUBSTRUCTURE
     1 63A         1 TEMP              0 ****  ****    0 ROOT
