@<TRIPOS>MOLECULE
63A
   53    56     1     0     0
SMALL
bcc


@<TRIPOS>ATOM
      1 N3           2.9710    -0.8630    -1.1070 n          1 63A      -0.493800
      2 C4           3.2310     0.3220    -0.3070 c5         1 63A       0.112000
      3 C5           2.8190    -0.0810     1.1110 c5         1 63A      -0.151700
      4 C6           3.9920    -0.5330     1.9480 c3         1 63A       0.669900
      5 C10          3.3200    -1.0210    -2.3980 c          1 63A       0.675100
      6 C20         -4.0010    -1.8470    -0.2810 ca         1 63A       0.512800
      7 C21         -2.6960    -2.2890    -0.0140 ca         1 63A      -0.392400
      8 C22         -2.7010    -3.7170    -0.0790 cc         1 63A      -0.118200
      9 C26         -3.0070     2.7210     0.0990 cc         1 63A      -0.000700
     10 C1           1.7770    -1.1910     0.8900 c5         1 63A      -0.076700
     11 C2           2.2480    -1.8960    -0.3820 c5         1 63A       0.104000
     12 F7           3.6080    -0.9200     3.1720 f          1 63A      -0.233633
     13 F8           4.6580    -1.5630     1.4060 f          1 63A      -0.233633
     14 F9           4.8860     0.4520     2.1170 f          1 63A      -0.233633
     15 C11          3.9960     0.1620    -3.0560 c3         1 63A      -0.154400
     16 C12          4.3530    -0.0830    -4.5110 c3         1 63A      -0.076100
     17 O13          3.0880    -2.0640    -2.9970 o          1 63A      -0.595100
     18 C14          0.4130    -0.5390     0.7210 c3         1 63A       0.148400
     19 O15         -0.5300    -1.5810     0.4970 os         1 63A      -0.428100
     20 C16         -1.7870    -1.2580     0.2310 ca         1 63A       0.768600
     21 N17         -2.1520     0.0040     0.2060 nb         1 63A      -0.872000
     22 C18         -3.4360     0.2890    -0.0670 ca         1 63A       0.969900
     23 N19         -4.4060    -0.5810    -0.3160 nb         1 63A      -0.819000
     24 C23         -3.9800    -4.0730    -0.3760 cd         1 63A      -0.142100
     25 N24         -4.7610    -2.9430    -0.4970 na         1 63A      -0.273100
     26 N25         -3.7980     1.5980    -0.0920 nu         1 63A      -0.711300
     27 C27         -3.4390     4.0170    -0.1100 cd         1 63A      -0.205300
     28 N28         -2.4030     4.8230     0.1980 na         1 63A       0.121400
     29 N29         -1.3380     4.1480     0.5870 nd         1 63A      -0.524800
     30 C30         -1.6770     2.8680     0.5380 cc         1 63A       0.306200
     31 C31         -2.3790     6.2640     0.1500 c3         1 63A       0.047600
     32 H1           4.2730     0.6370    -0.3760 h1         1 63A       0.058700
     33 H2           2.6260     1.1700    -0.6400 h1         1 63A       0.058700
     34 H3           2.3860     0.7750     1.6370 hc         1 63A       0.096700
     35 H4          -1.8720    -4.3880     0.0730 ha         1 63A       0.164000
     36 H5           1.7240    -1.8880     1.7280 hc         1 63A       0.091700
     37 H6           1.4150    -2.2780    -0.9720 h1         1 63A       0.073200
     38 H7           2.8930    -2.7470    -0.1530 h1         1 63A       0.073200
     39 H8           3.3370     1.0330    -2.9720 hc         1 63A       0.055200
     40 H9           4.8930     0.4250    -2.4870 hc         1 63A       0.055200
     41 H10          4.8120     0.8100    -4.9350 hc         1 63A       0.042700
     42 H11          5.0620    -0.9030    -4.6200 hc         1 63A       0.042700
     43 H12          3.4730    -0.3180    -5.1070 hc         1 63A       0.042700
     44 H13          0.1480     0.0170     1.6240 h1         1 63A       0.057200
     45 H14          0.4080     0.1600    -0.1210 h1         1 63A       0.057200
     46 H15         -4.4120    -5.0500    -0.5170 h4         1 63A       0.168000
     47 H16         -5.7460    -2.9360    -0.7100 hn         1 63A       0.310700
     48 H17         -4.7660     1.7620    -0.3190 hn         1 63A       0.457800
     49 H18         -4.3880     4.4010    -0.4470 h4         1 63A       0.173000
     50 H19         -0.9720     2.1040     0.8130 h4         1 63A       0.051100
     51 H20         -2.2300     6.6770     1.1470 h1         1 63A       0.056033
     52 H21         -1.5780     6.6070    -0.5010 h1         1 63A       0.056033
     53 H22         -3.3270     6.6210    -0.2400 h1         1 63A       0.056033
@<TRIPOS>BOND
     1     1     2 1   
     2     1     5 1   
     3     1    11 1   
     4     2     3 1   
     5     2    32 1   
     6     2    33 1   
     7     3     4 1   
     8     3    10 1   
     9     3    34 1   
    10     4    12 1   
    11     4    13 1   
    12     4    14 1   
    13     5    15 1   
    14     5    17 2   
    15     6     7 ar  
    16     6    23 ar  
    17     6    25 1   
    18     7     8 1   
    19     7    20 ar  
    20     8    24 2   
    21     8    35 1   
    22     9    26 1   
    23     9    27 2   
    24     9    30 1   
    25    10    11 1   
    26    10    18 1   
    27    10    36 1   
    28    11    37 1   
    29    11    38 1   
    30    15    16 1   
    31    15    39 1   
    32    15    40 1   
    33    16    41 1   
    34    16    42 1   
    35    16    43 1   
    36    18    19 1   
    37    18    44 1   
    38    18    45 1   
    39    19    20 1   
    40    20    21 ar  
    41    21    22 ar  
    42    22    23 ar  
    43    22    26 1   
    44    24    25 1   
    45    24    46 1   
    46    25    47 1   
    47    26    48 1   
    48    27    28 1   
    49    27    49 1   
    50    28    29 1   
    51    28    31 1   
    52    29    30 2   
    53    30    50 1   
    54    31    51 1   
    55    31    52 1   
    56    31    53 1   
@<TRIPOS>SUBSTRUCTURE
     1 63A         1 TEMP              0 ****  ****    0 ROOT
