@<TRIPOS>MOLECULE
63B
   45    49     1     0     0
SMALL
No Charge or Current Charge


@<TRIPOS>ATOM
      1 N1         -21.0600   -33.6450   -38.7490 na         1 63B       0.123000
      2 N3         -19.9690   -32.7700   -40.4450 nc         1 63B      -0.335700
      3 C4         -22.4580   -34.0020   -36.9880 cc         1 63B       0.384500
      4 C5         -19.1890   -36.0510   -38.6430 ca         1 63B      -0.135000
      5 C6         -22.7520   -32.5770   -36.9290 cc         1 63B      -0.143000
      6 C7         -23.0200   -34.9320   -35.9660 ca         1 63B      -0.170500
      7 C8         -19.8190   -37.1920   -38.1040 ca         1 63B      -0.048000
      8 C10        -22.8910   -36.3400   -36.1260 ca         1 63B      -0.049000
      9 C13        -17.9690   -35.7200   -36.5400 ca         1 63B      -0.067000
     10 C15        -24.1210   -35.3670   -33.8070 ca         1 63B      -0.155000
     11 C17        -23.9880   -36.7460   -33.9990 ca         1 63B       0.183000
     12 C20        -21.3550   -41.7690   -31.9640 c3         1 63B       0.169900
     13 C1         -20.1750   -33.8970   -39.7690 cd         1 63B       0.350700
     14 C2         -21.3310   -32.3170   -38.7780 cd         1 63B      -0.140000
     15 N2         -21.6490   -34.5680   -37.8990 nd         1 63B      -0.448800
     16 S1         -19.6290   -35.5100   -40.2970 ss         1 63B       0.045800
     17 N4         -20.6770   -31.7530   -39.7840 nc         1 63B      -0.070000
     18 C3         -22.2040   -31.7060   -37.8420 cd         1 63B      -0.023000
     19 C9         -18.2490   -35.3270   -37.8670 ca         1 63B      -0.089000
     20 C11        -23.6410   -34.4660   -34.7750 ca         1 63B      -0.049000
     21 C12        -19.5180   -37.5410   -36.7810 ca         1 63B      -0.086200
     22 C14        -23.3730   -37.2340   -35.1550 ca         1 63B      -0.155000
     23 C16        -18.6380   -36.8350   -36.0140 ca         1 63B       0.114400
     24 N5         -20.0330   -38.5520   -36.0220 na         1 63B      -0.328600
     25 N6         -18.5500   -37.3580   -34.7350 nc         1 63B      -0.624100
     26 C18        -19.4190   -38.3800   -34.7780 cd         1 63B       0.506400
     27 F          -24.4460   -37.6050   -33.0640 f          1 63B      -0.180000
     28 N7         -19.6660   -39.1520   -33.6870 ns         1 63B      -0.400400
     29 C19        -20.5480   -40.1800   -33.5710 c          1 63B       0.653100
     30 O1         -20.4860   -40.6700   -32.3020 os         1 63B      -0.441100
     31 O2         -21.2790   -40.5960   -34.4580 o          1 63B      -0.544000
     32 H1         -23.4330   -32.1820   -36.1890 ha         1 63B       0.137000
     33 H2         -20.5440   -37.7600   -38.6820 ha         1 63B       0.132000
     34 H3         -22.4260   -36.7630   -37.0130 ha         1 63B       0.127500
     35 H4         -17.2660   -35.1600   -35.9290 ha         1 63B       0.134000
     36 H5         -24.5910   -34.9930   -32.9010 ha         1 63B       0.138500
     37 H6         -21.2070   -42.0660   -30.9180 h1         1 63B       0.058700
     38 H7         -22.4090   -41.4890   -32.0920 h1         1 63B       0.058700
     39 H8         -21.1480   -42.6410   -32.5970 h1         1 63B       0.058700
     40 H9         -22.4240   -30.6420   -37.8470 ha         1 63B       0.154000
     41 H10        -17.7530   -34.4520   -38.2820 ha         1 63B       0.129000
     42 H11        -23.7420   -33.4090   -34.5550 ha         1 63B       0.127500
     43 H12        -23.2690   -38.3060   -35.2990 ha         1 63B       0.138500
     44 H13        -20.7080   -39.2650   -36.2650 hn         1 63B       0.389000
     45 H15        -19.1570   -38.9490   -32.8420 hn         1 63B       0.368500
@<TRIPOS>BOND
     1     1    13 1   
     2     1    14 1   
     3     1    15 1   
     4     2    13 2   
     5     2    17 1   
     6     3     5 1   
     7     3     6 1   
     8     3    15 2   
     9     4     7 ar  
    10     4    16 1   
    11     4    19 ar  
    12     5    18 2   
    13     5    32 1   
    14     6     8 ar  
    15     6    20 ar  
    16     7    21 ar  
    17     7    33 1   
    18     8    22 ar  
    19     8    34 1   
    20     9    19 ar  
    21     9    23 ar  
    22     9    35 1   
    23    10    11 ar  
    24    10    20 ar  
    25    10    36 1   
    26    11    22 ar  
    27    11    27 1   
    28    12    30 1   
    29    12    37 1   
    30    12    38 1   
    31    12    39 1   
    32    13    16 1   
    33    14    17 2   
    34    14    18 1   
    35    18    40 1   
    36    19    41 1   
    37    20    42 1   
    38    21    23 ar  
    39    21    24 1   
    40    22    43 1   
    41    23    25 1   
    42    24    26 1   
    43    24    44 1   
    44    25    26 2   
    45    26    28 1   
    46    28    29 1   
    47    28    45 1   
    48    29    30 1   
    49    29    31 2   
@<TRIPOS>SUBSTRUCTURE
     1 63B         1 TEMP              0 ****  ****    0 ROOT
