@<TRIPOS>MOLECULE
63B
   45    49     1     0     0
SMALL
abcg2


@<TRIPOS>ATOM
      1 N1         -21.2040   -33.7390   -38.8670 na         1 63B       0.123000
      2 N3         -20.1600   -32.8890   -40.5900 nc         1 63B      -0.335700
      3 C4         -22.4210   -34.0650   -37.0080 cc         1 63B       0.384500
      4 C5         -19.0980   -36.0150   -38.4940 ca         1 63B      -0.135000
      5 C6         -22.9170   -32.7190   -37.0940 cc         1 63B      -0.143000
      6 C7         -22.7920   -34.9650   -35.8960 ca         1 63B      -0.170500
      7 C8         -19.6590   -37.2110   -38.0560 ca         1 63B      -0.048000
      8 C10        -22.7170   -36.3540   -36.0600 ca         1 63B      -0.049000
      9 C13        -18.1950   -35.5080   -36.2970 ca         1 63B      -0.067000
     10 C15        -23.4250   -35.2990   -33.5800 ca         1 63B      -0.155000
     11 C17        -23.3320   -36.6630   -33.7830 ca         1 63B       0.183000
     12 C20        -21.7480   -41.8570   -32.3360 c3         1 63B       0.169900
     13 C1         -20.2880   -33.9810   -39.8590 cd         1 63B       0.350700
     14 C2         -21.6040   -32.4250   -39.0430 cd         1 63B      -0.140000
     15 N2         -21.5970   -34.5700   -37.8920 nd         1 63B      -0.448800
     16 S1         -19.4540   -35.4870   -40.1630 ss         1 63B       0.045800
     17 N4         -20.9900   -31.9160   -40.0980 nc         1 63B      -0.070000
     18 C3         -22.5220   -31.9030   -38.1060 cd         1 63B      -0.023000
     19 C9         -18.3500   -35.1910   -37.6390 ca         1 63B      -0.089000
     20 C11        -23.1560   -34.4520   -34.6480 ca         1 63B      -0.049000
     21 C12        -19.4770   -37.5240   -36.7210 ca         1 63B      -0.086200
     22 C14        -22.9890   -37.2120   -35.0070 ca         1 63B      -0.155000
     23 C16        -18.7830   -36.6810   -35.8250 ca         1 63B       0.114400
     24 N5         -19.9520   -38.5620   -35.9410 na         1 63B      -0.328600
     25 N6         -18.8540   -37.1970   -34.5390 nc         1 63B      -0.624100
     26 C18        -19.5680   -38.2950   -34.6620 cd         1 63B       0.506400
     27 F          -23.5860   -37.4940   -32.7450 f          1 63B      -0.180000
     28 N7         -19.9050   -39.0920   -33.5940 ns         1 63B      -0.400400
     29 C19        -20.7360   -40.1800   -33.6480 c          1 63B       0.653100
     30 O1         -20.8930   -40.6970   -32.4280 os         1 63B      -0.441100
     31 O2         -21.2540   -40.6080   -34.6630 o          1 63B      -0.544000
     32 H1         -23.6240   -32.3680   -36.3580 ha         1 63B       0.137000
     33 H2         -20.2640   -37.8210   -38.7110 ha         1 63B       0.132000
     34 H3         -22.4380   -36.7600   -37.0210 ha         1 63B       0.127500
     35 H4         -17.6480   -34.8520   -35.6310 ha         1 63B       0.134000
     36 H5         -23.6930   -34.9100   -32.6070 ha         1 63B       0.138500
     37 H6         -21.7560   -42.1220   -31.2840 h1         1 63B       0.058700
     38 H7         -22.7520   -41.6110   -32.6780 h1         1 63B       0.058700
     39 H8         -21.3390   -42.6710   -32.9320 h1         1 63B       0.058700
     40 H9         -22.8820   -30.8890   -38.2110 ha         1 63B       0.154000
     41 H10        -17.9240   -34.2750   -38.0270 ha         1 63B       0.129000
     42 H11        -23.2040   -33.3840   -34.4850 ha         1 63B       0.127500
     43 H12        -22.9330   -38.2850   -35.1250 ha         1 63B       0.138500
     44 H13        -20.5460   -39.3340   -36.2060 hn         1 63B       0.389000
     45 H15        -19.5520   -38.8010   -32.6930 hn         1 63B       0.368500
@<TRIPOS>BOND
     1     1    13 1   
     2     1    14 1   
     3     1    15 1   
     4     2    13 2   
     5     2    17 1   
     6     3     5 1   
     7     3     6 1   
     8     3    15 2   
     9     4     7 ar  
    10     4    16 1   
    11     4    19 ar  
    12     5    18 2   
    13     5    32 1   
    14     6     8 ar  
    15     6    20 ar  
    16     7    21 ar  
    17     7    33 1   
    18     8    22 ar  
    19     8    34 1   
    20     9    19 ar  
    21     9    23 ar  
    22     9    35 1   
    23    10    11 ar  
    24    10    20 ar  
    25    10    36 1   
    26    11    22 ar  
    27    11    27 1   
    28    12    30 1   
    29    12    37 1   
    30    12    38 1   
    31    12    39 1   
    32    13    16 1   
    33    14    17 2   
    34    14    18 1   
    35    18    40 1   
    36    19    41 1   
    37    20    42 1   
    38    21    23 ar  
    39    21    24 1   
    40    22    43 1   
    41    23    25 1   
    42    24    26 1   
    43    24    44 1   
    44    25    26 2   
    45    26    28 1   
    46    28    29 1   
    47    28    45 1   
    48    29    30 1   
    49    29    31 2   
@<TRIPOS>SUBSTRUCTURE
     1 63B         1 TEMP              0 ****  ****    0 ROOT
