@<TRIPOS>MOLECULE
63C
   62    65     1     0     0
SMALL
abcg2


@<TRIPOS>ATOM
      1 C2          -0.6810    -1.2990    -0.0240 c5         1 63C      -0.146700
      2 C3          -1.9610    -0.7940     0.6480 c5         1 63C      -0.143700
      3 N4          -2.1980    -3.0440    -0.0590 n3         1 63C      -0.691600
      4 C5           0.5940    -0.7700     0.5960 c          1 63C       0.617100
      5 N6           7.0530     0.5900     0.3480 n          1 63C      -0.199200
      6 C7          -2.6590     0.2930    -0.1500 c          1 63C       0.617100
      7 C8          -2.8520    -2.0540     0.7740 c5         1 63C       0.166800
      8 C9          -0.7800    -2.8230     0.1160 c5         1 63C       0.169800
      9 C10          7.4640     1.8660    -0.0490 c          1 63C       0.555200
     10 C11          5.6720     0.2640     0.2150 ca         1 63C       0.017600
     11 N12          1.6420    -0.7700    -0.2710 ns         1 63C      -0.139000
     12 C13          5.1560    -0.0360    -1.0370 ca         1 63C      -0.097000
     13 N14         -3.5070     1.0380     0.6040 ns         1 63C      -0.145000
     14 C15          2.9670    -0.4150    -0.0330 ca         1 63C      -0.043000
     15 C16          3.8260    -0.3640    -1.1340 ca         1 63C       0.118000
     16 C19          7.8990    -0.3430     0.8670 cc         1 63C      -0.023400
     17 O20          0.6760    -0.4280     1.7600 o          1 63C      -0.581100
     18 O21         -2.4990     0.4500    -1.3460 o          1 63C      -0.563100
     19 C22          8.8700     2.1160     0.1220 cc         1 63C      -0.318200
     20 O23          6.6490     2.6650    -0.4950 o          1 63C      -0.539000
     21 C24          4.8550     0.2250     1.3300 ca         1 63C      -0.089000
     22 C25          3.5140    -0.1160     1.2130 ca         1 63C      -0.112000
     23 C26          9.2190    -0.0910     1.0280 cd         1 63C      -0.300000
     24 C27          9.7070     1.1790     0.6380 cd         1 63C      -0.085000
     25 C28         -4.3900     2.0470     0.2110 ca         1 63C      -0.015000
     26 F30          3.3190    -0.6610    -2.3420 f          1 63C      -0.180000
     27 C31         -6.2090     4.0700    -0.3780 ca         1 63C       0.092000
     28 C33         -5.2490     2.5480     1.1930 ca         1 63C      -0.142500
     29 C34         -4.4570     2.5800    -1.0760 ca         1 63C      -0.142500
     30 C35         -5.3670     3.5880    -1.3640 ca         1 63C      -0.074500
     31 C36         -6.1540     3.5530     0.9060 ca         1 63C      -0.074500
     32 C1          -2.6190    -4.3950     0.1890 c3         1 63C       0.090800
     33 CL          -7.3410     5.3300    -0.7500 cl         1 63C      -0.204000
     34 C40         -4.0460    -4.6320    -0.2820 c          1 63C       0.589100
     35 O41         -4.5030    -4.0970    -1.2820 o          1 63C      -0.569100
     36 N42         -4.7410    -5.5030     0.4590 ns         1 63C      -0.515900
     37 C43         -6.0840    -5.9140     0.1200 c3         1 63C       0.096300
     38 H2          -0.7060    -1.0550    -1.0890 hc         1 63C       0.110700
     39 H3          -1.7400    -0.4150     1.6480 hc         1 63C       0.086700
     40 H91C        -0.2000    -3.3520    -0.6410 h1         1 63C       0.048200
     41 H92C        -0.4190    -3.1440     1.1080 h1         1 63C       0.048200
     42 H81C        -2.8870    -2.3640     1.8290 h1         1 63C       0.051700
     43 H82C        -3.8820    -1.8860     0.4510 h1         1 63C       0.051700
     44 H11C        -1.9800    -5.0740    -0.3850 h1         1 63C       0.046700
     45 H12C        -2.5070    -4.6840     1.2470 h1         1 63C       0.046700
     46 H12          1.4250    -1.0360    -1.2190 hn         1 63C       0.171000
     47 H19          7.4490    -1.2890     1.1340 h4         1 63C       0.203000
     48 H14         -3.5410     0.8080     1.5860 hn         1 63C       0.151000
     49 H22          9.2340     3.0900    -0.1760 ha         1 63C       0.210000
     50 H13          5.7770    -0.0210    -1.9230 ha         1 63C       0.148000
     51 H24          5.2580     0.4630     2.3060 ha         1 63C       0.131000
     52 H25          2.9010    -0.1430     2.0980 ha         1 63C       0.154000
     53 H26          9.8690    -0.8500     1.4370 ha         1 63C       0.201000
     54 H27         10.7590     1.4050     0.7540 ha         1 63C       0.186000
     55 H33         -5.2130     2.1470     2.1990 ha         1 63C       0.133000
     56 H34         -3.8100     2.2260    -1.8610 ha         1 63C       0.133000
     57 H35         -5.4070     3.9930    -2.3660 ha         1 63C       0.130000
     58 H36         -6.8090     3.9230     1.6830 ha         1 63C       0.130000
     59 H42         -4.3270    -5.8740     1.2970 hn         1 63C       0.311500
     60 H50         -6.4010    -6.6740     0.8280 h1         1 63C       0.041700
     61 H51         -6.7870    -5.0820     0.1730 h1         1 63C       0.041700
     62 H52         -6.1300    -6.3370    -0.8830 h1         1 63C       0.041700
@<TRIPOS>BOND
     1     1     2 1   
     2     1     4 1   
     3     1     8 1   
     4     1    38 1   
     5     2     6 1   
     6     2     7 1   
     7     2    39 1   
     8     3     7 1   
     9     3     8 1   
    10     3    32 1   
    11     4    11 1   
    12     4    17 2   
    13     5     9 1   
    14     5    10 1   
    15     5    16 1   
    16     6    13 1   
    17     6    18 2   
    18     7    42 1   
    19     7    43 1   
    20     8    40 1   
    21     8    41 1   
    22     9    19 1   
    23     9    20 2   
    24    10    12 ar  
    25    10    21 ar  
    26    11    14 1   
    27    11    46 1   
    28    12    15 ar  
    29    12    50 1   
    30    13    25 1   
    31    13    48 1   
    32    14    15 ar  
    33    14    22 ar  
    34    15    26 1   
    35    16    23 2   
    36    16    47 1   
    37    19    24 2   
    38    19    49 1   
    39    21    22 ar  
    40    21    51 1   
    41    22    52 1   
    42    23    24 1   
    43    23    53 1   
    44    24    54 1   
    45    25    28 ar  
    46    25    29 ar  
    47    27    30 ar  
    48    27    31 ar  
    49    27    33 1   
    50    28    31 ar  
    51    28    55 1   
    52    29    30 ar  
    53    29    56 1   
    54    30    57 1   
    55    31    58 1   
    56    32    34 1   
    57    32    44 1   
    58    32    45 1   
    59    34    35 2   
    60    34    36 1   
    61    36    37 1   
    62    36    59 1   
    63    37    60 1   
    64    37    61 1   
    65    37    62 1   
@<TRIPOS>SUBSTRUCTURE
     1 63C         1 TEMP              0 ****  ****    0 ROOT
