@<TRIPOS>MOLECULE
63C
   62    65     1     0     0
SMALL
No Charge or Current Charge


@<TRIPOS>ATOM
      1 C2          -0.7660    -2.1530    -0.0280 c5         1 63C      -0.146700
      2 C3          -2.0790    -1.5860     0.6440 c5         1 63C      -0.143700
      3 N4          -2.3790    -3.7810    -0.2210 n3         1 63C      -0.691600
      4 C5           0.5090    -1.7220     0.7390 c          1 63C       0.617100
      5 N6           6.5700     1.2770     0.3330 n          1 63C      -0.199200
      6 C7          -2.7250    -0.4830    -0.2410 c          1 63C       0.617100
      7 C8          -3.0310    -2.8180     0.6980 c5         1 63C       0.166800
      8 C9          -0.9470    -3.6800     0.1150 c5         1 63C       0.169800
      9 C10          6.9020     2.5310    -0.2480 c          1 63C       0.555200
     10 C11          5.2180     0.7530     0.2620 ca         1 63C       0.017600
     11 N12          1.3730    -1.0830    -0.1420 ns         1 63C      -0.139000
     12 C13          4.5190     0.7460    -0.9650 ca         1 63C      -0.097000
     13 N14         -2.8700     0.6700     0.5230 ns         1 63C      -0.145000
     14 C15          2.6590    -0.4950     0.0340 ca         1 63C      -0.043000
     15 C16          3.2550     0.1460    -1.0700 ca         1 63C       0.118000
     16 C19          7.5210     0.5910     1.1060 cc         1 63C      -0.023400
     17 O20          0.7190    -1.8930     1.9350 o          1 63C      -0.581100
     18 O21         -3.0360    -0.5890    -1.4220 o          1 63C      -0.563100
     19 C22          8.2760     2.9950    -0.0110 cc         1 63C      -0.318200
     20 O23          6.1080     3.2120    -0.8850 o          1 63C      -0.539000
     21 C24          4.6430     0.0610     1.3530 ca         1 63C      -0.089000
     22 C25          3.3750    -0.5390     1.2500 ca         1 63C      -0.112000
     23 C26          8.7970     1.0700     1.3280 cd         1 63C      -0.300000
     24 C27          9.2020     2.3140     0.7460 cd         1 63C      -0.085000
     25 C28         -3.3880     1.9600     0.2190 ca         1 63C      -0.015000
     26 F30          2.6120     0.1760    -2.2600 f          1 63C      -0.180000
     27 C31         -4.3820     4.5650    -0.2400 ca         1 63C       0.092000
     28 C33         -3.3400     2.9350     1.2350 ca         1 63C      -0.142500
     29 C34         -3.9440     2.3040    -1.0340 ca         1 63C      -0.142500
     30 C35         -4.4380     3.6020    -1.2590 ca         1 63C      -0.074500
     31 C36         -3.8340     4.2330     1.0080 ca         1 63C      -0.074500
     32 C1          -2.9430    -5.1660    -0.2270 c3         1 63C       0.090800
     33 Cl          -5.0000     6.1870    -0.5260 cl         1 63C      -0.204000
     34 C40         -4.4320    -5.3260    -0.6520 c          1 63C       0.589100
     35 O41         -4.7810    -5.5040    -1.8130 o          1 63C      -0.569100
     36 N42         -5.3490    -5.2560     0.3790 ns         1 63C      -0.515900
     37 C43         -6.7980    -5.3710     0.2040 c3         1 63C       0.096300
     38 H2          -0.6980    -1.8870    -1.0900 hc         1 63C       0.110700
     39 H3          -1.9030    -1.2120     1.6600 hc         1 63C       0.086700
     40 H91C        -0.3080    -4.2410    -0.5820 h1         1 63C       0.048200
     41 H92C        -0.7460    -4.0350     1.1360 h1         1 63C       0.048200
     42 H81C        -3.0760    -3.2220     1.7200 h1         1 63C       0.051700
     43 H82C        -4.0580    -2.5760     0.3910 h1         1 63C       0.051700
     44 H11C        -2.3580    -5.7930    -0.9120 h1         1 63C       0.046700
     45 H12C        -2.8390    -5.6130     0.7710 h1         1 63C       0.046700
     46 H12          1.0280    -1.0200    -1.0910 hn         1 63C       0.171000
     47 H19          7.1640    -0.3630     1.4780 h4         1 63C       0.203000
     48 H14         -2.5470     0.5780     1.4770 hn         1 63C       0.151000
     49 H22          8.5180     3.9470    -0.4680 ha         1 63C       0.210000
     50 H13          4.9560     1.1910    -1.8530 ha         1 63C       0.148000
     51 H24          5.1590     0.0170     2.3090 ha         1 63C       0.131000
     52 H25          2.9720    -1.0360     2.1270 ha         1 63C       0.154000
     53 H26          9.4970     0.4930     1.9300 ha         1 63C       0.201000
     54 H27         10.2060     2.7090     0.8980 ha         1 63C       0.186000
     55 H33         -2.9170     2.6900     2.2070 ha         1 63C       0.133000
     56 H34         -4.0070     1.5850    -1.8440 ha         1 63C       0.133000
     57 H35         -4.8650     3.8620    -2.2250 ha         1 63C       0.130000
     58 H36         -3.7920     4.9790     1.7980 ha         1 63C       0.130000
     59 H42         -4.9810    -5.1080     1.3120 hn         1 63C       0.311500
     60 H50         -7.2940    -5.2770     1.1780 h1         1 63C       0.041700
     61 H51         -7.1550    -4.5750    -0.4620 h1         1 63C       0.041700
     62 H52         -7.0420    -6.3490    -0.2330 h1         1 63C       0.041700
@<TRIPOS>BOND
     1     1     2 1   
     2     1     4 1   
     3     1     8 1   
     4     1    38 1   
     5     2     6 1   
     6     2     7 1   
     7     2    39 1   
     8     3     7 1   
     9     3     8 1   
    10     3    32 1   
    11     4    11 1   
    12     4    17 2   
    13     5     9 1   
    14     5    10 1   
    15     5    16 1   
    16     6    13 1   
    17     6    18 2   
    18     7    42 1   
    19     7    43 1   
    20     8    40 1   
    21     8    41 1   
    22     9    19 1   
    23     9    20 2   
    24    10    12 ar  
    25    10    21 ar  
    26    11    14 1   
    27    11    46 1   
    28    12    15 ar  
    29    12    50 1   
    30    13    25 1   
    31    13    48 1   
    32    14    15 ar  
    33    14    22 ar  
    34    15    26 1   
    35    16    23 2   
    36    16    47 1   
    37    19    24 2   
    38    19    49 1   
    39    21    22 ar  
    40    21    51 1   
    41    22    52 1   
    42    23    24 1   
    43    23    53 1   
    44    24    54 1   
    45    25    28 ar  
    46    25    29 ar  
    47    27    30 ar  
    48    27    31 ar  
    49    27    33 1   
    50    28    31 ar  
    51    28    55 1   
    52    29    30 ar  
    53    29    56 1   
    54    30    57 1   
    55    31    58 1   
    56    32    34 1   
    57    32    44 1   
    58    32    45 1   
    59    34    35 2   
    60    34    36 1   
    61    36    37 1   
    62    36    59 1   
    63    37    60 1   
    64    37    61 1   
    65    37    62 1   
@<TRIPOS>SUBSTRUCTURE
     1 63C         1 TEMP              0 ****  ****    0 ROOT
