@<TRIPOS>MOLECULE
63D
   65    66     1     0     0
SMALL
abcg2


@<TRIPOS>ATOM
      1 OAC          2.2750     1.0170    -2.4520 o          1 63D      -0.697500
      2 CAZ          3.4540     0.6490    -2.5460 c          1 63D       0.723600
      3 OAF          4.1130     0.4460    -3.5830 o          1 63D      -0.697500
      4 CBF          4.2200     0.4710    -1.2360 ca         1 63D      -0.171600
      5 CAM          5.5140     0.9530    -1.1620 ca         1 63D       0.034000
      6 CBG          6.2630     0.9040     0.0110 ca         1 63D      -0.365500
      7 SBH          7.9110     1.5580     0.0020 sy         1 63D       1.161600
      8 OAD          8.8190     0.5480     0.5130 o          1 63D      -0.545000
      9 OAE          8.1360     2.1190    -1.3200 o          1 63D      -0.545000
     10 NAB          7.9680     2.8190     1.0520 n8         1 63D      -1.017100
     11 CBD          5.6950     0.3140     1.1320 ca         1 63D       0.218000
     12 CL1          6.5430     0.2210     2.6360 cl         1 63D      -0.239000
     13 CAL          4.4160    -0.2070     1.0860 ca         1 63D      -0.251000
     14 CBE          3.6710    -0.1350    -0.0940 ca         1 63D       0.216100
     15 OAY          2.4470    -0.6550    -0.2030 os         1 63D      -0.280100
     16 CAW          1.8620    -1.3030     0.9210 c3         1 63D       0.200900
     17 CBB          0.5280    -1.8280     0.4820 ca         1 63D      -0.002300
     18 CAK         -0.6240    -1.1250     0.7790 ca         1 63D      -0.150000
     19 CAI          0.4690    -3.0140    -0.2470 ca         1 63D      -0.208000
     20 CBA         -0.7630    -3.4880    -0.6720 ca         1 63D       0.168100
     21 OAG         -0.8980    -4.6300    -1.3730 oh         1 63D      -0.543100
     22 CAJ         -1.9360    -2.7890    -0.3790 ca         1 63D      -0.234000
     23 CBC         -1.8630    -1.6070     0.3460 ca         1 63D       0.174100
     24 OAX         -2.9320    -0.8620     0.6730 os         1 63D      -0.349100
     25 CAV         -4.2250    -1.2770     0.2570 c3         1 63D       0.167600
     26 CAU         -5.2240    -0.2290     0.6980 c3         1 63D      -0.082400
     27 CAT         -6.6450    -0.6020     0.2900 c3         1 63D      -0.073400
     28 CAS         -7.6610     0.4820     0.6270 c3         1 63D      -0.074400
     29 CAR         -9.0810     0.1160     0.2140 c3         1 63D      -0.074400
     30 CAQ        -10.0930     1.2240     0.4790 c3         1 63D      -0.074400
     31 CAP        -11.5080     0.8550     0.0500 c3         1 63D      -0.074400
     32 CAO        -12.5180     1.9750     0.2660 c3         1 63D      -0.075400
     33 CAN        -13.9280     1.6050    -0.1780 c3         1 63D      -0.075400
     34 CAA        -14.9290     2.7350     0.0160 c3         1 63D      -0.088100
     35 H2           5.9480     1.3910    -2.0500 ha         1 63D       0.164000
     36 H3           7.3530     3.5860     0.8040 hn         1 63D       0.473000
     37 H4           7.8650     2.5590     2.0260 hn         1 63D       0.473000
     38 H5           4.0150    -0.6650     1.9790 ha         1 63D       0.113000
     39 H6           2.5000    -2.1240     1.2630 h1         1 63D       0.035200
     40 H7           1.7450    -0.5970     1.7490 h1         1 63D       0.035200
     41 H8          -0.5790    -0.2030     1.3470 ha         1 63D       0.131000
     42 H9           1.3780    -3.5620    -0.4690 ha         1 63D       0.122000
     43 H10         -0.0370    -5.0400    -1.5150 ho         1 63D       0.466000
     44 H11         -2.8790    -3.1940    -0.7230 ha         1 63D       0.123000
     45 H12         -4.2570    -1.3880    -0.8340 h1         1 63D       0.033700
     46 H13         -4.4710    -2.2520     0.6940 h1         1 63D       0.033700
     47 H14         -5.1720    -0.1040     1.7840 hc         1 63D       0.055200
     48 H15         -4.9560     0.7340     0.2520 hc         1 63D       0.055200
     49 H16         -6.6760    -0.7970    -0.7880 hc         1 63D       0.037700
     50 H17         -6.9360    -1.5390     0.7770 hc         1 63D       0.037700
     51 H18         -7.6330     0.6890     1.7020 hc         1 63D       0.039700
     52 H19         -7.3670     1.4140     0.1310 hc         1 63D       0.039700
     53 H20         -9.0930    -0.1330    -0.8520 hc         1 63D       0.036200
     54 H21         -9.3910    -0.7940     0.7400 hc         1 63D       0.036200
     55 H22        -10.0880     1.4770     1.5450 hc         1 63D       0.037700
     56 H23         -9.7780     2.1310    -0.0480 hc         1 63D       0.037700
     57 H24        -11.5010     0.5750    -1.0090 hc         1 63D       0.036200
     58 H25        -11.8320    -0.0380     0.5950 hc         1 63D       0.036200
     59 H26        -12.5330     2.2550     1.3250 hc         1 63D       0.037200
     60 H27        -12.1900     2.8680    -0.2780 hc         1 63D       0.037200
     61 H28        -13.9090     1.3120    -1.2330 hc         1 63D       0.036200
     62 H29        -14.2610     0.7200     0.3740 hc         1 63D       0.036200
     63 H30        -15.0060     3.0190     1.0680 hc         1 63D       0.030367
     64 H31        -14.6300     3.6250    -0.5410 hc         1 63D       0.030367
     65 H32        -15.9260     2.4520    -0.3230 hc         1 63D       0.030367
@<TRIPOS>BOND
     1     1     2 1   
     2     2     3 1   
     3     2     4 1   
     4     4     5 ar  
     5     4    14 ar  
     6     5     6 ar  
     7     5    35 1   
     8     6     7 1   
     9     6    11 ar  
    10     7     8 2   
    11     7     9 2   
    12     7    10 1   
    13    10    36 1   
    14    10    37 1   
    15    11    12 1   
    16    11    13 ar  
    17    13    14 ar  
    18    13    38 1   
    19    14    15 1   
    20    15    16 1   
    21    16    17 1   
    22    16    39 1   
    23    16    40 1   
    24    17    18 ar  
    25    17    19 ar  
    26    18    23 ar  
    27    18    41 1   
    28    19    20 ar  
    29    19    42 1   
    30    20    21 1   
    31    20    22 ar  
    32    21    43 1   
    33    22    23 ar  
    34    22    44 1   
    35    23    24 1   
    36    24    25 1   
    37    25    26 1   
    38    25    45 1   
    39    25    46 1   
    40    26    27 1   
    41    26    47 1   
    42    26    48 1   
    43    27    28 1   
    44    27    49 1   
    45    27    50 1   
    46    28    29 1   
    47    28    51 1   
    48    28    52 1   
    49    29    30 1   
    50    29    53 1   
    51    29    54 1   
    52    30    31 1   
    53    30    55 1   
    54    30    56 1   
    55    31    32 1   
    56    31    57 1   
    57    31    58 1   
    58    32    33 1   
    59    32    59 1   
    60    32    60 1   
    61    33    34 1   
    62    33    61 1   
    63    33    62 1   
    64    34    63 1   
    65    34    64 1   
    66    34    65 1   
@<TRIPOS>SUBSTRUCTURE
     1 63D         1 TEMP              0 ****  ****    0 ROOT
