@<TRIPOS>MOLECULE
63D
   65    66     1     0     0
SMALL
No Charge or Current Charge


@<TRIPOS>ATOM
      1 OAC          2.3580     1.1710    -2.4480 o          1 63D      -0.697500
      2 CAZ          3.4510     0.6260    -2.4770 c          1 63D       0.723600
      3 OAF          3.9860     0.2330    -3.5030 o          1 63D      -0.697500
      4 CBF          4.2470     0.5580    -1.2110 ca         1 63D      -0.171600
      5 CAM          5.5110     1.1730    -1.1620 ca         1 63D       0.034000
      6 CBG          6.2870     1.1300     0.0160 ca         1 63D      -0.365500
      7 SBH          7.8960     1.9210     0.0120 sy         1 63D       1.161600
      8 OAD          8.8900     1.0500     0.6320 o          1 63D      -0.545000
      9 OAE          8.1290     2.5910    -1.2670 o          1 63D      -0.545000
     10 NAB          7.6970     3.1200     1.1040 n8         1 63D      -1.017100
     11 CBD          5.7800     0.4620     1.1490 ca         1 63D       0.218000
     12 Cl1          6.6460     0.3920     2.6820 cl         1 63D      -0.239000
     13 CAL          4.5240    -0.1580     1.0950 ca         1 63D      -0.251000
     14 CBE          3.7510    -0.1200    -0.0840 ca         1 63D       0.216100
     15 OAY          2.5240    -0.7490    -0.1690 os         1 63D      -0.280100
     16 CAW          1.9490    -1.4710     0.9320 c3         1 63D       0.200900
     17 CBB          0.6040    -2.0380     0.4950 ca         1 63D      -0.002300
     18 CAK         -0.5710    -1.2780     0.6470 ca         1 63D      -0.150000
     19 CAI          0.5210    -3.3270    -0.0680 ca         1 63D      -0.208000
     20 CBA         -0.7200    -3.8430    -0.4680 ca         1 63D       0.168100
     21 OAG         -0.7990    -5.0880    -1.0110 oh         1 63D      -0.543100
     22 CAJ         -1.8870    -3.0840    -0.3130 ca         1 63D      -0.234000
     23 CBC         -1.8140    -1.7930     0.2470 ca         1 63D       0.174100
     24 OAX         -2.9280    -0.9970     0.4250 os         1 63D      -0.349100
     25 CAV         -4.2450    -1.4310     0.0490 c3         1 63D       0.167600
     26 CAU         -5.2270    -0.2930     0.3910 c3         1 63D      -0.082400
     27 CAT         -6.6910    -0.6330     0.0340 c3         1 63D      -0.073400
     28 CAS         -7.6760     0.5050     0.3770 c3         1 63D      -0.074400
     29 CAR         -9.1400     0.1650     0.0200 c3         1 63D      -0.074400
     30 CAQ        -10.1260     1.3040     0.3630 c3         1 63D      -0.074400
     31 CAP        -11.5890     0.9630     0.0060 c3         1 63D      -0.074400
     32 CAO        -12.5750     2.1020     0.3480 c3         1 63D      -0.075400
     33 CAN        -14.0390     1.7620    -0.0090 c3         1 63D      -0.075400
     34 CAA        -15.0230     2.8980     0.3320 c3         1 63D      -0.088100
     35 H2           5.8790     1.6850    -2.0520 ha         1 63D       0.164000
     36 H3           7.0290     2.7020     1.7450 hn         1 63D       0.473000
     37 H4           8.5780     3.0590     1.6080 hn         1 63D       0.473000
     38 H5           4.1670    -0.6650     1.9850 ha         1 63D       0.113000
     39 H6           2.6080    -2.2930     1.2420 h1         1 63D       0.035200
     40 H7           1.8010    -0.8070     1.7930 h1         1 63D       0.035200
     41 H8          -0.5210    -0.2810     1.0760 ha         1 63D       0.131000
     42 H9           1.4250    -3.9180    -0.1920 ha         1 63D       0.122000
     43 H10          0.1050    -5.4670    -1.0460 ho         1 63D       0.466000
     44 H11         -2.8320    -3.5110    -0.6320 ha         1 63D       0.123000
     45 H12         -4.2920    -1.6430    -1.0280 h1         1 63D       0.033700
     46 H13         -4.5280    -2.3370     0.6000 h1         1 63D       0.033700
     47 H14         -5.1570    -0.0730     1.4640 hc         1 63D       0.055200
     48 H15         -4.9240     0.6140    -0.1460 hc         1 63D       0.055200
     49 H16         -6.7570    -0.8570    -1.0380 hc         1 63D       0.037700
     50 H17         -6.9900    -1.5430     0.5710 hc         1 63D       0.037700
     51 H18         -7.6100     0.7290     1.4490 hc         1 63D       0.039700
     52 H19         -7.3770     1.4150    -0.1590 hc         1 63D       0.039700
     53 H20         -9.2070    -0.0590    -1.0520 hc         1 63D       0.036200
     54 H21         -9.4390    -0.7440     0.5570 hc         1 63D       0.036200
     55 H22        -10.0590     1.5270     1.4350 hc         1 63D       0.037700
     56 H23         -9.8260     2.2130    -0.1740 hc         1 63D       0.037700
     57 H24        -11.6560     0.7390    -1.0660 hc         1 63D       0.036200
     58 H25        -11.8890     0.0540     0.5420 hc         1 63D       0.036200
     59 H26        -12.5090     2.3260     1.4200 hc         1 63D       0.037200
     60 H27        -12.2760     3.0110    -0.1890 hc         1 63D       0.037200
     61 H28        -14.1100     1.5390    -1.0810 hc         1 63D       0.036200
     62 H29        -14.3430     0.8550     0.5280 hc         1 63D       0.036200
     63 H30        -15.0010     3.1210     1.4060 hc         1 63D       0.030367
     64 H31        -14.7660     3.8120    -0.2170 hc         1 63D       0.030367
     65 H32        -16.0460     2.6110     0.0620 hc         1 63D       0.030367
@<TRIPOS>BOND
     1     1     2 1   
     2     2     3 1   
     3     2     4 1   
     4     4     5 ar  
     5     4    14 ar  
     6     5     6 ar  
     7     5    35 1   
     8     6     7 1   
     9     6    11 ar  
    10     7     8 2   
    11     7     9 2   
    12     7    10 1   
    13    10    36 1   
    14    10    37 1   
    15    11    12 1   
    16    11    13 ar  
    17    13    14 ar  
    18    13    38 1   
    19    14    15 1   
    20    15    16 1   
    21    16    17 1   
    22    16    39 1   
    23    16    40 1   
    24    17    18 ar  
    25    17    19 ar  
    26    18    23 ar  
    27    18    41 1   
    28    19    20 ar  
    29    19    42 1   
    30    20    21 1   
    31    20    22 ar  
    32    21    43 1   
    33    22    23 ar  
    34    22    44 1   
    35    23    24 1   
    36    24    25 1   
    37    25    26 1   
    38    25    45 1   
    39    25    46 1   
    40    26    27 1   
    41    26    47 1   
    42    26    48 1   
    43    27    28 1   
    44    27    49 1   
    45    27    50 1   
    46    28    29 1   
    47    28    51 1   
    48    28    52 1   
    49    29    30 1   
    50    29    53 1   
    51    29    54 1   
    52    30    31 1   
    53    30    55 1   
    54    30    56 1   
    55    31    32 1   
    56    31    57 1   
    57    31    58 1   
    58    32    33 1   
    59    32    59 1   
    60    32    60 1   
    61    33    34 1   
    62    33    61 1   
    63    33    62 1   
    64    34    63 1   
    65    34    64 1   
    66    34    65 1   
@<TRIPOS>SUBSTRUCTURE
     1 63D         1 TEMP              0 ****  ****    0 ROOT
