@<TRIPOS>MOLECULE
63E
   37    39     1     0     0
SMALL
bcc


@<TRIPOS>ATOM
      1 C1          -4.5130     1.3960    -0.4910 ca         1 63E      -0.281300
      2 C2          -5.3360     0.2660    -0.5490 ca         1 63E       0.421200
      3 C8          -1.6170    -2.0010     0.2240 cc         1 63E      -0.064100
      4 C9          -1.3850    -0.6450     0.1710 cd         1 63E      -0.224000
      5 C10         -0.1020     0.0150     0.3290 ca         1 63E       0.599100
      6 C11          1.0860    -0.6990     0.5180 ca         1 63E      -0.430600
      7 C12          2.2520     0.0340     0.6510 ca         1 63E       0.498600
      8 C14          1.0760     1.9580     0.4190 ca         1 63E       0.905900
      9 C19          5.8800    -1.0570    -0.1480 c3         1 63E      -0.075400
     10 C20          6.7980    -0.8890    -1.3510 c3         1 63E      -0.088100
     11 N3          -4.9000    -0.9750    -0.3880 nb         1 63E      -0.683000
     12 C4          -3.1570     1.2560    -0.2530 ca         1 63E      -0.028000
     13 C5          -2.6620    -0.0360    -0.0800 ca         1 63E      -0.162100
     14 C6          -3.6030    -1.0860    -0.1640 ca         1 63E       0.420800
     15 N7          -2.9310    -2.2600     0.0280 na         1 63E      -0.267100
     16 N13          2.2550     1.3650     0.6020 nb         1 63E      -0.783000
     17 N15         -0.1010     1.3430     0.2810 nb         1 63E      -0.787000
     18 N16          1.0610     3.3110     0.4060 nv         1 63E      -0.945500
     19 C17          3.5800    -0.6360     0.8350 c3         1 63E      -0.132700
     20 C18          4.5030    -0.4440    -0.3690 c3         1 63E      -0.071400
     21 H1          -4.9490     2.3750    -0.6350 ha         1 63E       0.139000
     22 H2          -6.3970     0.3830    -0.7340 h4         1 63E       0.018100
     23 H3          -0.9270    -2.8110     0.3930 h4         1 63E       0.168000
     24 H4           1.1090    -1.7790     0.5530 ha         1 63E       0.144000
     25 H5           5.7730    -2.1200     0.0860 hc         1 63E       0.036200
     26 H6           6.3410    -0.5980     0.7310 hc         1 63E       0.036200
     27 H7           6.3810    -1.3710    -2.2370 hc         1 63E       0.032033
     28 H8           6.9470     0.1650    -1.5900 hc         1 63E       0.032033
     29 H9           7.7790    -1.3290    -1.1670 hc         1 63E       0.032033
     30 H10         -2.5020     2.1140    -0.2020 ha         1 63E       0.158000
     31 H11         -3.3450    -3.1790     0.0110 hn         1 63E       0.313700
     32 H12          1.9340     3.7890     0.2640 hn         1 63E       0.431800
     33 H13          0.2390     3.7700     0.0530 hn         1 63E       0.431800
     34 H14          4.0600    -0.2210     1.7260 hc         1 63E       0.054700
     35 H15          3.4320    -1.7020     1.0190 hc         1 63E       0.054700
     36 H16          4.6050     0.6240    -0.5790 hc         1 63E       0.047700
     37 H17          4.0400    -0.8900    -1.2550 hc         1 63E       0.047700
@<TRIPOS>BOND
     1     1     2 ar  
     2     1    12 ar  
     3     1    21 1   
     4     2    11 ar  
     5     2    22 1   
     6     3     4 2   
     7     3    15 1   
     8     3    23 1   
     9     4     5 1   
    10     4    13 1   
    11     5     6 ar  
    12     5    17 ar  
    13     6     7 ar  
    14     6    24 1   
    15     7    16 ar  
    16     7    19 1   
    17     8    16 ar  
    18     8    17 ar  
    19     8    18 1   
    20     9    10 1   
    21     9    20 1   
    22     9    25 1   
    23     9    26 1   
    24    10    27 1   
    25    10    28 1   
    26    10    29 1   
    27    11    14 ar  
    28    12    13 ar  
    29    12    30 1   
    30    13    14 ar  
    31    14    15 1   
    32    15    31 1   
    33    18    32 1   
    34    18    33 1   
    35    19    20 1   
    36    19    34 1   
    37    19    35 1   
    38    20    36 1   
    39    20    37 1   
@<TRIPOS>SUBSTRUCTURE
     1 63E         1 TEMP              0 ****  ****    0 ROOT
