@<TRIPOS>MOLECULE
63E
   37    39     1     0     0
SMALL
No Charge or Current Charge


@<TRIPOS>ATOM
      1 C1          -4.5490     1.2900    -0.3940 ca         1 63E      -0.198000
      2 C2          -5.2940     0.1190    -0.6370 ca         1 63E       0.355900
      3 C8          -1.2780    -1.9980    -0.0870 cc         1 63E      -0.114100
      4 C9          -1.2640    -0.6140     0.0390 cd         1 63E      -0.224000
      5 C10         -0.0490     0.1890     0.3310 ca         1 63E       0.270800
      6 C11          1.2050    -0.4300     0.5180 ca         1 63E      -0.282000
      7 C12          2.3170     0.3860     0.7890 ca         1 63E       0.170300
      8 C14          0.9640     2.2140     0.6770 ca         1 63E       0.379900
      9 C19          5.8060    -1.1500    -0.1580 c3         1 63E      -0.075400
     10 C20          6.4980    -1.4880    -1.4920 c3         1 63E      -0.088100
     11 N3          -4.7440    -1.1200    -0.6480 nb         1 63E      -0.683000
     12 C4          -3.1670     1.1930    -0.1480 ca         1 63E      -0.010000
     13 C5          -2.6180    -0.1020    -0.1650 ca         1 63E      -0.096800
     14 C6          -3.4200    -1.2000    -0.4110 ca         1 63E       0.355500
     15 N7          -2.6210    -2.3210    -0.3640 na         1 63E      -0.317400
     16 N13          2.1950     1.7250     0.8680 nb         1 63E      -0.257000
     17 N15         -0.1570     1.5300     0.4140 nb         1 63E      -0.261000
     18 N16          0.8390     3.5620     0.7540 nv         1 63E      -1.055900
     19 C17          3.7030    -0.2050     0.9930 c3         1 63E      -0.132700
     20 C18          4.3980    -0.5440    -0.3440 c3         1 63E      -0.071400
     21 H1          -5.0430     2.2580    -0.3970 ha         1 63E       0.121000
     22 H2          -6.3650     0.1750    -0.8300 h4         1 63E       0.018100
     23 H3          -0.4920    -2.7450    -0.0090 h4         1 63E       0.218000
     24 H4           1.3250    -1.5050     0.4550 ha         1 63E       0.126000
     25 H5           5.7320    -2.0630     0.4460 hc         1 63E       0.036200
     26 H6           6.4350    -0.4470     0.4020 hc         1 63E       0.036200
     27 H7           5.9100    -2.2190    -2.0610 hc         1 63E       0.032033
     28 H8           6.6200    -0.5870    -2.1060 hc         1 63E       0.032033
     29 H9           7.4920    -1.9150    -1.3100 hc         1 63E       0.032033
     30 H10         -2.5790     2.0850     0.0420 ha         1 63E       0.140000
     31 H11         -2.9780    -3.2560    -0.5130 hn         1 63E       0.364000
     32 H12          1.6840     4.1290     0.7410 hn         1 63E       0.487000
     33 H13         -0.0120     3.9970     0.4060 hn         1 63E       0.487000
     34 H14          4.3340     0.4900     1.5610 hc         1 63E       0.054700
     35 H15          3.6280    -1.1160     1.6000 hc         1 63E       0.054700
     36 H16          4.4750     0.3680    -0.9490 hc         1 63E       0.047700
     37 H17          3.7730    -1.2490    -0.9070 hc         1 63E       0.047700
@<TRIPOS>BOND
     1     1     2 ar  
     2     1    12 ar  
     3     1    21 1   
     4     2    11 ar  
     5     2    22 1   
     6     3     4 2   
     7     3    15 1   
     8     3    23 1   
     9     4     5 1   
    10     4    13 1   
    11     5     6 ar  
    12     5    17 ar  
    13     6     7 ar  
    14     6    24 1   
    15     7    16 ar  
    16     7    19 1   
    17     8    16 ar  
    18     8    17 ar  
    19     8    18 1   
    20     9    10 1   
    21     9    20 1   
    22     9    25 1   
    23     9    26 1   
    24    10    27 1   
    25    10    28 1   
    26    10    29 1   
    27    11    14 ar  
    28    12    13 ar  
    29    12    30 1   
    30    13    14 ar  
    31    14    15 1   
    32    15    31 1   
    33    18    32 1   
    34    18    33 1   
    35    19    20 1   
    36    19    34 1   
    37    19    35 1   
    38    20    36 1   
    39    20    37 1   
@<TRIPOS>SUBSTRUCTURE
     1 63E         1 TEMP              0 ****  ****    0 ROOT
