@<TRIPOS>MOLECULE
63F
   73    77     1     0     0
SMALL
abcg2


@<TRIPOS>ATOM
      1 C1          -3.7190    -0.0990    -0.4300 ca         1 63F      -0.075000
      2 C2          -3.2470     1.3800    -2.2510 ca         1 63F      -0.075000
      3 C3          -4.6860     0.7740     0.0420 ca         1 63F      -0.108500
      4 C4          -4.2170     2.2640    -1.7990 ca         1 63F      -0.108500
      5 C5          -1.7380     4.1950     0.1790 ca         1 63F      -0.120000
      6 C6           0.3800     4.9360     1.0870 ca         1 63F      -0.120000
      7 C7          -1.5050     2.9210     0.6720 ca         1 63F       0.007500
      8 C8           0.6060     3.6670     1.5880 ca         1 63F       0.007500
      9 C9           5.1010    -4.0100     1.6090 ca         1 63F      -0.032000
     10 C10          4.8030    -2.6880     1.4580 ca         1 63F      -0.181000
     11 C11         -2.9930     0.1900    -1.5820 ca         1 63F      -0.105300
     12 C12         -4.9250     1.9490    -0.6530 ca         1 63F       0.088100
     13 C13         -0.7930     5.1830     0.3910 ca         1 63F       0.146100
     14 C14         -0.3340     2.6690     1.3660 ca         1 63F      -0.242500
     15 C15          4.3730    -4.9380     0.8570 ca         1 63F       0.186500
     16 C16          3.7740    -2.3480     0.5510 ca         1 63F       0.560900
     17 C18         -0.0420    -0.0950    -0.7360 c          1 63F       0.591100
     18 C19          3.8710    -9.3200    -1.1030 cx         1 63F      -0.132900
     19 C20          5.2000    -9.2540    -0.4150 cx         1 63F      -0.132900
     20 C21          3.6790     0.0280     1.2030 c6         1 63F       0.204800
     21 C22          2.4740     0.2380     2.1020 c6         1 63F       0.180800
     22 C23          2.3050    -0.7510    -0.5670 c6         1 63F       0.212800
     23 C24          1.0220    -0.5530     0.2550 c6         1 63F       0.110500
     24 C25          4.0010    -8.6100     0.2060 cx         1 63F       0.047700
     25 C26         -1.9450    -0.7690    -2.0880 c3         1 63F       0.153300
     26 C27         -7.1150     2.7640    -0.5650 c3         1 63F       0.515000
     27 C28         -0.6500     6.8130    -1.2790 c3         1 63F       0.518000
     28 N29          3.4230    -4.5550     0.0310 nb         1 63F      -0.285000
     29 N30          3.1150    -3.2970    -0.1210 nb         1 63F      -0.410000
     30 N31          3.4310    -1.0590     0.2800 nh         1 63F      -0.754300
     31 N32          1.2740     0.4610     1.2840 n3         1 63F      -0.740500
     32 N33          3.8940    -7.1900     0.1980 ns         1 63F      -0.464900
     33 N34         -0.9070    -1.0420    -1.1190 ns         1 63F      -0.480900
     34 O35          5.5090    -6.8140     1.7400 o          1 63F      -0.598100
     35 O36         -0.0210     1.0300    -1.2050 o          1 63F      -0.588100
     36 O39         -5.8470     2.8620    -0.1500 os         1 63F      -0.405100
     37 O40         -1.0550     6.4710    -0.0470 os         1 63F      -0.408100
     38 F41         -7.6730     1.5930    -0.2480 f          1 63F      -0.109000
     39 F42         -7.8060     3.7270     0.0230 f          1 63F      -0.109000
     40 F43         -7.2400     2.9040    -1.8860 f          1 63F      -0.109000
     41 F44         -1.2220     6.0750    -2.2310 f          1 63F      -0.106667
     42 F45         -0.9820     8.0780    -1.4740 f          1 63F      -0.106667
     43 F46          0.6690     6.6930    -1.4360 f          1 63F      -0.106667
     44 S47         -0.0560     1.0710     2.0810 sy         1 63F       1.157600
     45 H1          -3.5270    -1.0140     0.1150 ha         1 63F       0.128000
     46 H2          -2.6820     1.6290    -3.1400 ha         1 63F       0.128000
     47 H3          -5.2310     0.5490     0.9500 ha         1 63F       0.138000
     48 H4          -4.3960     3.1960    -2.3190 ha         1 63F       0.138000
     49 H5          -2.6560     4.4170    -0.3480 ha         1 63F       0.139500
     50 H6           1.0970     5.7270     1.2620 ha         1 63F       0.139500
     51 H7          -2.2330     2.1400     0.5050 ha         1 63F       0.138000
     52 H8           1.5130     3.4730     2.1460 ha         1 63F       0.138000
     53 H9           5.8820    -4.3310     2.2840 ha         1 63F       0.156000
     54 H10          5.3500    -1.9430     2.0160 ha         1 63F       0.135000
     55 H19A         3.3350   -10.2590    -1.1140 hc         1 63F       0.078950
     56 H20          5.5870   -10.1490     0.0530 hc         1 63F       0.078950
     57 H20A         5.9550    -8.6040    -0.8390 hc         1 63F       0.078950
     58 H21          3.8770     0.9320     0.6240 h1         1 63F       0.071200
     59 H21A         4.5540    -0.1490     1.8220 h1         1 63F       0.071200
     60 H22          2.3520    -0.6270     2.7630 h1         1 63F       0.066700
     61 H22A         2.6600     1.1110     2.7250 h1         1 63F       0.066700
     62 H23          2.1460    -1.5400    -1.2970 h1         1 63F       0.089700
     63 H23A         2.5300     0.1740    -1.1010 h1         1 63F       0.089700
     64 H24          0.7460    -1.5110     0.7120 h1         1 63F       0.067700
     65 H25          3.5770    -9.0990     1.0770 h1         1 63F       0.087700
     66 H26         -2.4030    -1.7260    -2.3380 h1         1 63F       0.063200
     67 H26A        -1.5010    -0.3810    -3.0060 h1         1 63F       0.063200
     68 HN33         3.1680    -6.7510    -0.3500 hn         1 63F       0.343500
     69 HN34        -0.9330    -1.9190    -0.6260 hn         1 63F       0.329500
     70 C17          4.6480    -6.4030     0.9760 c          1 63F       0.516600
     71 O37          0.3240     1.2990     3.4660 o          1 63F      -0.545000
     72 O38         -1.2100     0.2370     1.7830 o          1 63F      -0.545000
     73 H19          3.7340    -8.7130    -1.9890 hc         1 63F       0.078950
@<TRIPOS>BOND
     1     1     3 ar  
     2     1    11 ar  
     3     1    45 1   
     4     2     4 ar  
     5     2    11 ar  
     6     2    46 1   
     7     3    12 ar  
     8     3    47 1   
     9     4    12 ar  
    10     4    48 1   
    11     5     7 ar  
    12     5    13 ar  
    13     5    49 1   
    14     6     8 ar  
    15     6    13 ar  
    16     6    50 1   
    17     7    14 ar  
    18     7    51 1   
    19     8    14 ar  
    20     8    52 1   
    21     9    10 ar  
    22     9    15 ar  
    23     9    53 1   
    24    10    16 ar  
    25    10    54 1   
    26    11    25 1   
    27    12    36 1   
    28    13    37 1   
    29    14    44 1   
    30    15    28 ar  
    31    15    70 1   
    32    16    29 ar  
    33    16    30 1   
    34    17    23 1   
    35    17    33 1   
    36    17    35 2   
    37    18    19 1   
    38    18    24 1   
    39    18    55 1   
    40    18    73 1   
    41    19    24 1   
    42    19    56 1   
    43    19    57 1   
    44    20    21 1   
    45    20    30 1   
    46    20    58 1   
    47    20    59 1   
    48    21    31 1   
    49    21    60 1   
    50    21    61 1   
    51    22    23 1   
    52    22    30 1   
    53    22    62 1   
    54    22    63 1   
    55    23    31 1   
    56    23    64 1   
    57    24    32 1   
    58    24    65 1   
    59    25    33 1   
    60    25    66 1   
    61    25    67 1   
    62    26    36 1   
    63    26    38 1   
    64    26    39 1   
    65    26    40 1   
    66    27    37 1   
    67    27    41 1   
    68    27    42 1   
    69    27    43 1   
    70    28    29 ar  
    71    31    44 1   
    72    32    68 1   
    73    32    70 1   
    74    33    69 1   
    75    34    70 2   
    76    44    71 2   
    77    44    72 2   
@<TRIPOS>SUBSTRUCTURE
     1 63F         1 TEMP              0 ****  ****    0 ROOT
