@<TRIPOS>MOLECULE
63F
   73    77     1     0     0
SMALL
No Charge or Current Charge


@<TRIPOS>ATOM
      1 C1          -3.1180    -0.7490    -0.7790 ca         1 63F      -0.075000
      2 C2          -3.1530     1.1000    -2.3540 ca         1 63F      -0.075000
      3 C3          -4.2800    -0.2470    -0.1680 ca         1 63F      -0.108500
      4 C4          -4.3190     1.6010    -1.7470 ca         1 63F      -0.108500
      5 C5          -2.2620     3.8510     0.1800 ca         1 63F      -0.120000
      6 C6          -0.1500     5.0060     0.5220 ca         1 63F      -0.120000
      7 C7          -1.7500     2.7090     0.8180 ca         1 63F       0.007500
      8 C8           0.3660     3.8670     1.1640 ca         1 63F       0.007500
      9 C9           5.4430    -4.0770     1.3730 ca         1 63F      -0.032000
     10 C10          5.2910    -2.6870     1.1920 ca         1 63F      -0.181000
     11 C11         -2.5460    -0.0770    -1.8760 ca         1 63F      -0.105300
     12 C12         -4.8890     0.9260    -0.6430 ca         1 63F       0.088100
     13 C13         -1.4730     5.0010     0.0240 ca         1 63F       0.146100
     14 C14         -0.4310     2.7170     1.3110 ca         1 63F      -0.242500
     15 C15          4.4300    -4.9360     0.8930 ca         1 63F       0.186500
     16 C16          4.1360    -2.2180     0.5430 ca         1 63F       0.560900
     17 C18          0.4870     0.3400    -1.0240 c          1 63F       0.591100
     18 C19          2.3790    -9.3090    -0.2390 cx         1 63F      -0.132900
     19 C20          3.8370    -9.4050    -0.6140 cx         1 63F      -0.132900
     20 C21          4.1270     0.1520     1.4110 c6         1 63F       0.204800
     21 C22          2.7990     0.4550     2.1650 c6         1 63F       0.180800
     22 C23          2.8610    -0.3660    -0.6350 c6         1 63F       0.212800
     23 C24          1.5220    -0.0220     0.0910 c6         1 63F       0.110500
     24 C25          3.4240    -8.6310     0.6130 cx         1 63F       0.047700
     25 C26         -1.2810    -0.6140    -2.5360 c3         1 63F       0.153300
     26 C27         -6.7810     2.5310    -0.3610 c3         1 63F       0.515000
     27 C28         -1.3790     7.3310    -0.8620 c3         1 63F       0.518000
     28 N29          3.3350    -4.4200     0.2640 nb         1 63F      -0.285000
     29 N30          3.1960    -3.0880     0.0940 nb         1 63F      -0.410000
     30 N31          3.9080    -0.8400     0.3200 nh         1 63F      -0.754300
     31 N32          1.6880     0.9290     1.2750 n3         1 63F      -0.740500
     32 N33          3.5040    -7.1970     0.5570 ns         1 63F      -0.464900
     33 N34         -0.1770    -0.7350    -1.5820 ns         1 63F      -0.480900
     34 O35          5.5050    -6.9780     1.6180 o          1 63F      -0.598100
     35 O36          0.1960     1.4890    -1.3260 o          1 63F      -0.588100
     36 O39         -6.0290     1.3580     0.0110 os         1 63F      -0.405100
     37 O40         -2.0530     6.0810    -0.6170 os         1 63F      -0.408100
     38 F41         -7.2590     2.4500    -1.6240 f          1 63F      -0.109000
     39 F42         -7.8480     2.6900     0.4530 f          1 63F      -0.109000
     40 F43         -6.0430     3.6610    -0.2660 f          1 63F      -0.109000
     41 F44         -0.2800     7.1740    -1.6360 f          1 63F      -0.106667
     42 F45         -2.1940     8.1920    -1.5100 f          1 63F      -0.106667
     43 F46         -0.9980     7.9380     0.2850 f          1 63F      -0.106667
     44 S47          0.2410     1.2700     2.1370 sy         1 63F       1.157600
     45 H1          -2.6600    -1.6580    -0.3950 ha         1 63F       0.128000
     46 H2          -2.7200     1.6330    -3.1980 ha         1 63F       0.128000
     47 H3          -4.7120    -0.7700     0.6810 ha         1 63F       0.138000
     48 H4          -4.7560     2.5100    -2.1470 ha         1 63F       0.138000
     49 H5          -3.2790     3.8450    -0.1990 ha         1 63F       0.139500
     50 H6           0.4940     5.8740     0.4230 ha         1 63F       0.139500
     51 H7          -2.3780     1.8260     0.9230 ha         1 63F       0.138000
     52 H8           1.3880     3.8770     1.5420 ha         1 63F       0.138000
     53 H9           6.3230    -4.4790     1.8690 ha         1 63F       0.156000
     54 H10          6.0580    -2.0000     1.5310 ha         1 63F       0.135000
     55 H19A         1.8990   -10.1980     0.1650 hc         1 63F       0.078950
     56 H20          4.3400   -10.3580    -0.4630 hc         1 63F       0.078950
     57 H20A         4.1780    -8.8440    -1.4810 hc         1 63F       0.078950
     58 H21          4.5210     1.0890     0.9920 h1         1 63F       0.071200
     59 H21A         4.8730    -0.2020     2.1370 h1         1 63F       0.071200
     60 H22          2.4940    -0.4600     2.6960 h1         1 63F       0.066700
     61 H22A         3.0290     1.2070     2.9340 h1         1 63F       0.066700
     62 H23          2.6790    -1.1050    -1.4300 h1         1 63F       0.089700
     63 H23A         3.2180     0.5390    -1.1490 h1         1 63F       0.089700
     64 H24          1.1610    -0.9790     0.4930 h1         1 63F       0.067700
     65 H25          3.6450    -9.0600     1.5930 h1         1 63F       0.087700
     66 H26         -1.4870    -1.6040    -2.9630 h1         1 63F       0.063200
     67 H26A        -0.9710     0.0450    -3.3570 h1         1 63F       0.063200
     68 HN33         2.7530    -6.6700     0.1220 hn         1 63F       0.343500
     69 HN34         0.0810    -1.6610    -1.2610 hn         1 63F       0.329500
     70 C17          4.5480    -6.4450     1.0650 c          1 63F       0.516600
     71 O37          0.6630     1.7030     3.4750 o          1 63F      -0.545000
     72 O38         -0.6520     0.1170     1.9760 o          1 63F      -0.545000
     73 H19          1.7360    -8.6870    -0.8580 hc         1 63F       0.078950
@<TRIPOS>BOND
     1     1     3 ar  
     2     1    11 ar  
     3     1    45 1   
     4     2     4 ar  
     5     2    11 ar  
     6     2    46 1   
     7     3    12 ar  
     8     3    47 1   
     9     4    12 ar  
    10     4    48 1   
    11     5     7 ar  
    12     5    13 ar  
    13     5    49 1   
    14     6     8 ar  
    15     6    13 ar  
    16     6    50 1   
    17     7    14 ar  
    18     7    51 1   
    19     8    14 ar  
    20     8    52 1   
    21     9    10 ar  
    22     9    15 ar  
    23     9    53 1   
    24    10    16 ar  
    25    10    54 1   
    26    11    25 1   
    27    12    36 1   
    28    13    37 1   
    29    14    44 1   
    30    15    28 ar  
    31    15    70 1   
    32    16    29 ar  
    33    16    30 1   
    34    17    23 1   
    35    17    33 1   
    36    17    35 2   
    37    18    19 1   
    38    18    24 1   
    39    18    55 1   
    40    18    73 1   
    41    19    24 1   
    42    19    56 1   
    43    19    57 1   
    44    20    21 1   
    45    20    30 1   
    46    20    58 1   
    47    20    59 1   
    48    21    31 1   
    49    21    60 1   
    50    21    61 1   
    51    22    23 1   
    52    22    30 1   
    53    22    62 1   
    54    22    63 1   
    55    23    31 1   
    56    23    64 1   
    57    24    32 1   
    58    24    65 1   
    59    25    33 1   
    60    25    66 1   
    61    25    67 1   
    62    26    36 1   
    63    26    38 1   
    64    26    39 1   
    65    26    40 1   
    66    27    37 1   
    67    27    41 1   
    68    27    42 1   
    69    27    43 1   
    70    28    29 ar  
    71    31    44 1   
    72    32    68 1   
    73    32    70 1   
    74    33    69 1   
    75    34    70 2   
    76    44    71 2   
    77    44    72 2   
@<TRIPOS>SUBSTRUCTURE
     1 63F         1 TEMP              0 ****  ****    0 ROOT
