@<TRIPOS>MOLECULE
63I
   60    64     1     0     0
SMALL
No Charge or Current Charge


@<TRIPOS>ATOM
      1 C4          50.4060   -34.9800    56.1540 c6         1 63I      -0.071900
      2 C5          50.9650   -36.4220    56.3520 c6         1 63I      -0.081700
      3 C6          50.7410   -36.8440    57.8380 c6         1 63I      -0.071900
      4 C7          51.3240   -35.7970    58.8190 c6         1 63I       0.165800
      5 C8          50.4080   -37.4480    55.2850 c3         1 63I       0.138700
      6 C13         50.0810   -35.9780    51.7020 ca         1 63I      -0.038000
      7 C15         51.8510   -35.6290    50.0470 ca         1 63I       0.419900
      8 C17         54.0220   -36.1570    50.5170 ca         1 63I       0.614900
      9 C20         56.9100   -35.9830    51.7730 ca         1 63I      -0.094000
     10 C21         58.2210   -36.1540    52.2560 ca         1 63I      -0.132000
     11 C22         59.2250   -36.6890    51.4230 ca         1 63I       0.036800
     12 C24         57.5940   -36.8740    49.6200 ca         1 63I       0.158000
     13 C28         62.4150   -36.2280    52.7070 cc         1 63I      -0.223000
     14 N2          50.7510   -34.4460    58.5840 n3         1 63I      -0.714600
     15 C3          50.9950   -33.9910    57.1900 c6         1 63I       0.165800
     16 C9          51.0000   -38.8720    55.4790 c3         1 63I      -0.117100
     17 O10         48.9860   -37.6040    55.4740 oh         1 63I      -0.664000
     18 C11         50.7360   -36.9510    53.8350 ca         1 63I       0.405300
     19 C12         49.7360   -36.4310    52.9830 ca         1 63I      -0.155000
     20 C14         51.4280   -36.0540    51.3160 ca         1 63I      -0.192000
     21 N16         53.1380   -35.6870    49.6450 nb         1 63I      -0.726000
     22 C19         56.5740   -36.3550    50.4560 ca         1 63I       0.252000
     23 C23         58.9020   -37.0460    50.1010 ca         1 63I      -0.127000
     24 N26         60.5280   -36.8640    51.8970 na         1 63I       0.221000
     25 C27         61.1840   -35.7360    52.3900 cd         1 63I      -0.158000
     26 C29         62.4180   -37.5960    52.3700 cc         1 63I       0.248900
     27 N30         61.2800   -38.0250    51.8570 nd         1 63I      -0.515800
     28 C31         53.7060   -36.6270    51.7910 ca         1 63I      -0.218000
     29 C32         52.3790   -36.5720    52.2130 ca         1 63I       0.340000
     30 N33         52.0390   -37.0090    53.4420 nb         1 63I      -0.695000
     31 H1          50.6370   -34.6080    55.1470 hc         1 63I       0.048700
     32 H2          49.3110   -34.9810    56.2410 hc         1 63I       0.048700
     33 H3          52.0510   -36.3800    56.1850 hc         1 63I       0.072700
     34 H4          49.6700   -36.9670    58.0480 hc         1 63I       0.048700
     35 H5          51.2170   -37.8110    58.0450 hc         1 63I       0.048700
     36 H6          51.1130   -36.1250    59.8480 h1         1 63I       0.029700
     37 H7          52.4180   -35.7710    58.7070 h1         1 63I       0.029700
     38 H8          49.3220   -35.5780    51.0320 ha         1 63I       0.120000
     39 H9          51.1390   -35.2300    49.3260 h4         1 63I       0.022100
     40 H10         56.1640   -35.5380    52.4250 ha         1 63I       0.135000
     41 H11         58.4570   -35.8670    53.2790 ha         1 63I       0.128000
     42 H17         52.0750   -33.8850    57.0090 h1         1 63I       0.029700
     43 H18         50.5420   -33.0020    57.0280 h1         1 63I       0.029700
     44 H19         50.6500   -39.3370    56.4080 hc         1 63I       0.048367
     45 H20         50.7030   -39.5270    54.6510 hc         1 63I       0.048367
     46 H21         52.0960   -38.8430    55.5090 hc         1 63I       0.048367
     47 H22         48.8480   -37.8580    56.4110 ho         1 63I       0.453000
     48 H23         48.7020   -36.3750    53.3110 ha         1 63I       0.146000
     49 H25         59.6650   -37.4550    49.4440 ha         1 63I       0.163000
     50 H26         60.7430   -34.7480    52.4660 h4         1 63I       0.157000
     51 H27         63.2360   -38.2960    52.4820 h4         1 63I       0.041100
     52 H28         54.4650   -37.0480    52.4370 ha         1 63I       0.144000
     53 C1          51.2120   -33.4590    59.5840 c3         1 63I       0.153100
     54 N18         55.2680   -36.1740    49.9630 nu         1 63I      -0.954900
     55 F25         57.3170   -37.2200    48.3390 f          1 63I      -0.168000
     56 H12         63.2550   -35.6860    53.1310 ha         1 63I       0.149000
     57 H13         50.9650   -33.7940    60.6010 h1         1 63I       0.029367
     58 H14         52.2990   -33.3170    59.5230 h1         1 63I       0.029367
     59 H15         50.7270   -32.4870    59.4220 h1         1 63I       0.029367
     60 H24         55.1980   -36.0840    48.9530 hn         1 63I       0.521000
@<TRIPOS>BOND
     1     1     2 1   
     2     1    15 1   
     3     1    31 1   
     4     1    32 1   
     5     2     3 1   
     6     2     5 1   
     7     2    33 1   
     8     3     4 1   
     9     3    34 1   
    10     3    35 1   
    11     4    14 1   
    12     4    36 1   
    13     4    37 1   
    14     5    16 1   
    15     5    17 1   
    16     5    18 1   
    17     6    19 ar  
    18     6    20 ar  
    19     6    38 1   
    20     7    20 ar  
    21     7    21 ar  
    22     7    39 1   
    23     8    21 ar  
    24     8    28 ar  
    25     8    54 1   
    26     9    10 ar  
    27     9    22 ar  
    28     9    40 1   
    29    10    11 ar  
    30    10    41 1   
    31    11    23 ar  
    32    11    24 1   
    33    12    22 ar  
    34    12    23 ar  
    35    12    55 1   
    36    13    25 2   
    37    13    26 1   
    38    13    56 1   
    39    14    15 1   
    40    14    53 1   
    41    15    42 1   
    42    15    43 1   
    43    16    44 1   
    44    16    45 1   
    45    16    46 1   
    46    17    47 1   
    47    18    19 ar  
    48    18    30 ar  
    49    19    48 1   
    50    20    29 ar  
    51    22    54 1   
    52    23    49 1   
    53    24    25 1   
    54    24    27 1   
    55    25    50 1   
    56    26    27 2   
    57    26    51 1   
    58    28    29 ar  
    59    28    52 1   
    60    29    30 ar  
    61    53    57 1   
    62    53    58 1   
    63    53    59 1   
    64    54    60 1   
@<TRIPOS>SUBSTRUCTURE
     1 63I         1 TEMP              0 ****  ****    0 ROOT
