@<TRIPOS>MOLECULE
63I
   60    64     1     0     0
SMALL
bcc


@<TRIPOS>ATOM
      1 C4          50.9430   -35.0140    55.9570 c6         1 63I      -0.071900
      2 C5          51.3200   -36.4870    56.1010 c6         1 63I      -0.081700
      3 C6          51.2500   -36.8620    57.5810 c6         1 63I      -0.071900
      4 C7          52.1020   -35.9180    58.4170 c6         1 63I       0.165800
      5 C8          50.4770   -37.4090    55.1880 c3         1 63I       0.115500
      6 C13         49.8250   -36.3260    51.5990 ca         1 63I      -0.056000
      7 C15         51.5330   -35.9350    49.8290 ca         1 63I       0.485200
      8 C17         53.7600   -36.1650    50.3020 ca         1 63I       0.680200
      9 C20         56.4650   -35.3920    51.6180 ca         1 63I      -0.112000
     10 C21         57.6500   -35.5160    52.3220 ca         1 63I      -0.150000
     11 C22         58.6360   -36.3850    51.8690 ca         1 63I       0.036800
     12 C24         57.2140   -37.0260    50.0700 ca         1 63I       0.122900
     13 C28         61.6100   -36.1460    53.8120 cc         1 63I      -0.306300
     14 N2          51.6960   -34.5380    58.2450 n3         1 63I      -0.714600
     15 C3          51.8030   -34.1390    56.8560 c6         1 63I       0.165800
     16 C9          50.9090   -38.8750    55.3140 c3         1 63I      -0.117100
     17 O10         49.0980   -37.2840    55.4640 oh         1 63I      -0.601800
     18 C11         50.6760   -36.9900    53.7380 ca         1 63I       0.470600
     19 C12         49.5780   -36.6770    52.8970 ca         1 63I      -0.238300
     20 C14         51.1530   -36.2790    51.1410 ca         1 63I      -0.322600
     21 N16         52.7700   -35.8770    49.4220 nb         1 63I      -0.726000
     22 C19         56.2100   -36.1570    50.4830 ca         1 63I       0.113600
     23 C23         58.4210   -37.1440    50.7240 ca         1 63I      -0.145000
     24 N26         59.8540   -36.5030    52.5590 na         1 63I       0.170300
     25 C27         60.4330   -35.5940    53.3820 cd         1 63I      -0.125300
     26 C29         61.6550   -37.4050    53.1840 cc         1 63I       0.314200
     27 N30         60.5950   -37.6080    52.4330 nd         1 63I      -0.515800
     28 C31         53.5120   -36.5450    51.6070 ca         1 63I      -0.366600
     29 C32         52.1840   -36.6000    52.0530 ca         1 63I       0.470600
     30 N33         51.9190   -36.9580    53.3280 nb         1 63I      -0.695000
     31 H1          51.0660   -34.6740    54.9250 hc         1 63I       0.048700
     32 H2          49.8910   -34.8720    56.2180 hc         1 63I       0.048700
     33 H3          52.3620   -36.6000    55.7810 hc         1 63I       0.072700
     34 H4          50.2180   -36.8120    57.9410 hc         1 63I       0.048700
     35 H5          51.6040   -37.8810    57.7510 hc         1 63I       0.048700
     36 H6          52.0090   -36.1820    59.4740 h1         1 63I       0.029700
     37 H7          53.1660   -36.0600    58.1490 h1         1 63I       0.029700
     38 H8          49.0120   -36.0840    50.9250 ha         1 63I       0.138000
     39 H9          50.7650   -35.6990    49.0970 h4         1 63I       0.022100
     40 H10         55.7130   -34.6970    51.9680 ha         1 63I       0.153000
     41 H11         57.7900   -34.9270    53.2180 ha         1 63I       0.146000
     42 H17         52.8520   -34.1820    56.5070 h1         1 63I       0.029700
     43 H18         51.4870   -33.0960    56.7660 h1         1 63I       0.029700
     44 H19         50.6790   -39.2680    56.3060 hc         1 63I       0.048367
     45 H20         50.3880   -39.4950    54.5830 hc         1 63I       0.048367
     46 H21         51.9800   -38.9840    55.1510 hc         1 63I       0.048367
     47 H22         48.9150   -37.6920    56.3160 ho         1 63I       0.414000
     48 H23         48.5680   -36.7170    53.2730 ha         1 63I       0.164000
     49 H25         59.1740   -37.8250    50.3540 ha         1 63I       0.181000
     50 H26         59.9900   -34.6330    53.5850 h4         1 63I       0.175000
     51 H27         62.4190   -38.1630    53.2610 h4         1 63I       0.041100
     52 H28         54.3060   -36.8040    52.2930 ha         1 63I       0.162000
     53 C1          52.4500   -33.6570    59.1060 c3         1 63I       0.153100
     54 N18         55.0170   -36.0590    49.7690 nu         1 63I      -0.761300
     55 F25         57.0010   -37.7680    48.9760 f          1 63I      -0.132900
     56 H12         62.3350   -35.7040    54.4750 ha         1 63I       0.167000
     57 H13         52.3160   -33.9480    60.1500 h1         1 63I       0.029367
     58 H14         53.5310   -33.6610    58.8940 h1         1 63I       0.029367
     59 H15         52.0940   -32.6310    58.9980 h1         1 63I       0.029367
     60 H24         55.0590   -35.9720    48.7650 hn         1 63I       0.465800
@<TRIPOS>BOND
     1     1     2 1   
     2     1    15 1   
     3     1    31 1   
     4     1    32 1   
     5     2     3 1   
     6     2     5 1   
     7     2    33 1   
     8     3     4 1   
     9     3    34 1   
    10     3    35 1   
    11     4    14 1   
    12     4    36 1   
    13     4    37 1   
    14     5    16 1   
    15     5    17 1   
    16     5    18 1   
    17     6    19 ar  
    18     6    20 ar  
    19     6    38 1   
    20     7    20 ar  
    21     7    21 ar  
    22     7    39 1   
    23     8    21 ar  
    24     8    28 ar  
    25     8    54 1   
    26     9    10 ar  
    27     9    22 ar  
    28     9    40 1   
    29    10    11 ar  
    30    10    41 1   
    31    11    23 ar  
    32    11    24 1   
    33    12    22 ar  
    34    12    23 ar  
    35    12    55 1   
    36    13    25 2   
    37    13    26 1   
    38    13    56 1   
    39    14    15 1   
    40    14    53 1   
    41    15    42 1   
    42    15    43 1   
    43    16    44 1   
    44    16    45 1   
    45    16    46 1   
    46    17    47 1   
    47    18    19 ar  
    48    18    30 ar  
    49    19    48 1   
    50    20    29 ar  
    51    22    54 1   
    52    23    49 1   
    53    24    25 1   
    54    24    27 1   
    55    25    50 1   
    56    26    27 2   
    57    26    51 1   
    58    28    29 ar  
    59    28    52 1   
    60    29    30 ar  
    61    53    57 1   
    62    53    58 1   
    63    53    59 1   
    64    54    60 1   
@<TRIPOS>SUBSTRUCTURE
     1 63I         1 TEMP              0 ****  ****    0 ROOT
