@<TRIPOS>MOLECULE
63K
   61    66     1     0     0
SMALL
No Charge or Current Charge


@<TRIPOS>ATOM
      1 C6          15.0940    -9.7780    59.8960 ca         1 63K      -0.051500
      2 C10         15.9890   -11.5470    58.4930 ca         1 63K      -0.051500
      3 C20         20.9370   -10.4640    57.9020 ca         1 63K      -0.078000
      4 C7          14.6970   -10.7390    60.8420 ca         1 63K      -0.153500
      5 C9          15.5880   -12.5020    59.4430 ca         1 63K      -0.153500
      6 C19         20.5330   -10.0780    56.6080 ca         1 63K      -0.070000
      7 C2          15.8070    -7.7650    57.7870 cc         1 63K      -0.141000
      8 C1          16.2590    -6.8320    56.8830 cd         1 63K      -0.024000
      9 C21         19.1390   -12.0770    56.4430 ca         1 63K      -0.009000
     10 C5          15.7430   -10.1590    58.6890 ca         1 63K      -0.176500
     11 C23         20.4270   -11.6460    58.4620 ca         1 63K       0.145400
     12 C8          14.9420   -12.0970    60.6140 ca         1 63K       0.184000
     13 C22         19.5550   -12.4280    57.7350 ca         1 63K      -0.240000
     14 C18         19.6190   -10.8770    55.8830 ca         1 63K      -0.146000
     15 C3          16.2100    -9.1610    57.6840 cc         1 63K       0.384500
     16 C11         17.1480    -7.3500    55.9080 cd         1 63K      -0.137000
     17 C13         18.3900    -8.8110    54.8450 cd         1 63K       0.337700
     18 C25         20.0620   -13.2230    59.9520 cc         1 63K       0.473800
     19 C28         19.6250   -14.9340    61.6730 c          1 63K       0.655100
     20 C34         15.9550   -17.0810    65.2170 c6         1 63K       0.127800
     21 C38         18.1240   -17.5640    66.2760 c6         1 63K       0.127800
     22 C35         15.3370   -18.2830    65.9910 c6         1 63K       0.152600
     23 C37         17.4580   -18.7540    67.0310 c6         1 63K       0.152600
     24 C31         19.4760   -16.3410    63.7500 c3         1 63K       0.115000
     25 C32         18.0160   -16.1270    64.2250 c3         1 63K       0.138800
     26 N24         20.7390   -12.0900    59.7420 nd         1 63K      -0.620100
     27 N4          17.0380    -9.6390    56.7380 nd         1 63K      -0.444800
     28 N14         18.4850    -7.6590    54.1880 nc         1 63K      -0.326700
     29 N15         17.7220    -6.7150    54.8950 nc         1 63K      -0.074000
     30 N12         17.5250    -8.6520    55.8980 na         1 63K       0.127000
     31 N27         20.2150   -13.8040    61.1870 ns         1 63K      -0.420400
     32 N29         19.9930   -15.2100    62.9650 ns         1 63K      -0.506900
     33 N33         17.4230   -17.2610    64.9840 n3         1 63K      -0.716600
     34 O30         18.8510   -15.6340    61.0450 o          1 63K      -0.609100
     35 O36         16.0470   -18.4990    67.2340 os         1 63K      -0.458000
     36 F17         14.5620   -13.0150    61.5280 f          1 63K      -0.178000
     37 S26         19.0330   -13.8450    58.6280 ss         1 63K       0.114800
     38 S16         19.0330   -10.3680    54.2640 ss         1 63K       0.049800
     39 H1          14.9040    -8.7390    60.1430 ha         1 63K       0.130000
     40 H2          16.4830   -11.9090    57.5950 ha         1 63K       0.130000
     41 H3          21.6280    -9.8460    58.4690 ha         1 63K       0.135000
     42 H4          14.2040   -10.4290    61.7600 ha         1 63K       0.141000
     43 H5          15.7790   -13.5580    59.2700 ha         1 63K       0.141000
     44 H6          20.9190    -9.1560    56.1790 ha         1 63K       0.133000
     45 H7          15.1190    -7.4420    58.5540 ha         1 63K       0.138000
     46 H8          15.9540    -5.7890    56.9100 ha         1 63K       0.154000
     47 H9          18.4350   -12.7020    55.8960 ha         1 63K       0.138000
     48 H11         15.4270   -16.9710    64.2590 h1         1 63K       0.042450
     49 H12         19.1770   -17.8210    66.0980 h1         1 63K       0.042450
     50 H13         18.1130   -16.6810    66.9330 h1         1 63K       0.042450
     51 H14         14.2790   -18.0830    66.2100 h1         1 63K       0.054450
     52 H15         15.3930   -19.1930    65.3770 h1         1 63K       0.054450
     53 H16         17.5800   -19.6810    66.4510 h1         1 63K       0.054450
     54 H17         17.9430   -18.8960    68.0070 h1         1 63K       0.054450
     55 H18         19.5260   -17.2530    63.1400 h1         1 63K       0.071200
     56 H19         20.1300   -16.4820    64.6190 h1         1 63K       0.071200
     57 H20         17.9820   -15.2140    64.8360 h1         1 63K       0.040700
     58 H21         17.4020   -15.9350    63.3350 h1         1 63K       0.040700
     59 H22         20.8340   -13.3260    61.8210 hn         1 63K       0.336500
     60 H23         20.6460   -14.5790    63.4130 hn         1 63K       0.315500
     61 H10         15.7700   -16.1610    65.7930 h1         1 63K       0.042450
@<TRIPOS>BOND
     1     1     4 ar  
     2     1    10 ar  
     3     1    39 1   
     4     2     5 ar  
     5     2    10 ar  
     6     2    40 1   
     7     3     6 ar  
     8     3    11 ar  
     9     3    41 1   
    10     4    12 ar  
    11     4    42 1   
    12     5    12 ar  
    13     5    43 1   
    14     6    14 ar  
    15     6    44 1   
    16     7     8 2   
    17     7    15 1   
    18     7    45 1   
    19     8    16 1   
    20     8    46 1   
    21     9    13 ar  
    22     9    14 ar  
    23     9    47 1   
    24    10    15 1   
    25    11    13 ar  
    26    11    26 1   
    27    12    36 1   
    28    13    37 1   
    29    14    38 1   
    30    15    27 2   
    31    16    29 2   
    32    16    30 1   
    33    17    28 2   
    34    17    30 1   
    35    17    38 1   
    36    18    26 2   
    37    18    31 1   
    38    18    37 1   
    39    19    31 1   
    40    19    32 1   
    41    19    34 2   
    42    20    22 1   
    43    20    33 1   
    44    20    48 1   
    45    20    61 1   
    46    21    23 1   
    47    21    33 1   
    48    21    49 1   
    49    21    50 1   
    50    22    35 1   
    51    22    51 1   
    52    22    52 1   
    53    23    35 1   
    54    23    53 1   
    55    23    54 1   
    56    24    25 1   
    57    24    32 1   
    58    24    55 1   
    59    24    56 1   
    60    25    33 1   
    61    25    57 1   
    62    25    58 1   
    63    27    30 1   
    64    28    29 1   
    65    31    59 1   
    66    32    60 1   
@<TRIPOS>SUBSTRUCTURE
     1 63K         1 TEMP              0 ****  ****    0 ROOT
