@<TRIPOS>MOLECULE
63K
   61    66     1     0     0
SMALL
abcg2


@<TRIPOS>ATOM
      1 C6          14.4480    -9.8680    59.4720 ca         1 63K      -0.051500
      2 C10         16.4360   -11.1850    59.1180 ca         1 63K      -0.051500
      3 C20         20.9470   -10.5580    57.9120 ca         1 63K      -0.078000
      4 C7          14.0040   -10.7840    60.4160 ca         1 63K      -0.153500
      5 C9          16.0090   -12.1050    60.0630 ca         1 63K      -0.153500
      6 C19         20.4520   -10.2100    56.6660 ca         1 63K      -0.070000
      7 C2          15.7960    -7.7120    57.8460 cc         1 63K      -0.141000
      8 C1          16.2600    -6.8460    56.9080 cd         1 63K      -0.024000
      9 C21         19.1100   -12.2360    56.5710 ca         1 63K      -0.009000
     10 C5          15.6620   -10.0610    58.8070 ca         1 63K      -0.176500
     11 C23         20.5270   -11.7520    58.5020 ca         1 63K       0.145400
     12 C8          14.7950   -11.8850    60.6910 ca         1 63K       0.184000
     13 C22         19.6250   -12.5860    57.8110 ca         1 63K      -0.240000
     14 C18         19.5280   -11.0340    56.0110 ca         1 63K      -0.146000
     15 C3          16.1340    -9.1070    57.7820 cc         1 63K       0.384500
     16 C11         17.0850    -7.3730    55.8910 cd         1 63K      -0.137000
     17 C13         18.1900    -8.9760    54.8800 cd         1 63K       0.337700
     18 C25         20.2920   -13.3190    60.0380 cc         1 63K       0.473800
     19 C28         19.8290   -15.0860    61.6670 c          1 63K       0.655100
     20 C34         16.0760   -16.8580    65.1350 c6         1 63K       0.127800
     21 C38         18.1070   -17.5430    66.1920 c6         1 63K       0.127800
     22 C35         15.3630   -18.0230    65.7980 c6         1 63K       0.152600
     23 C37         17.3560   -18.6930    66.8390 c6         1 63K       0.152600
     24 C31         19.4820   -16.5860    63.5740 c3         1 63K       0.115000
     25 C32         18.1880   -16.1080    64.2340 c3         1 63K       0.138800
     26 N24         20.8930   -12.2010    59.7550 nd         1 63K      -0.620100
     27 N4          16.8880    -9.6100    56.8350 nd         1 63K      -0.444800
     28 N14         18.4030    -7.8420    54.2370 nc         1 63K      -0.326700
     29 N15         17.7090    -6.8370    54.8530 nc         1 63K      -0.074000
     30 N12         17.3520    -8.7280    55.9370 na         1 63K       0.127000
     31 N27         20.4920   -13.9420    61.2370 ns         1 63K      -0.420400
     32 N29         20.1760   -15.4980    62.9030 ns         1 63K      -0.506900
     33 N33         17.4840   -17.1850    64.9170 n3         1 63K      -0.716600
     34 O30         19.0120   -15.6560    60.9460 o          1 63K      -0.609100
     35 O36         15.9800   -18.3720    67.0360 os         1 63K      -0.458000
     36 F17         14.3660   -12.7810    61.6110 f          1 63K      -0.178000
     37 S26         19.2230   -13.9720    58.7990 ss         1 63K       0.114800
     38 S16         18.8270   -10.5380    54.4430 ss         1 63K       0.049800
     39 H1          13.8260    -9.0140    59.2420 ha         1 63K       0.130000
     40 H2          17.3830   -11.3310    58.6190 ha         1 63K       0.130000
     41 H3          21.6440    -9.9140    58.4320 ha         1 63K       0.135000
     42 H4          13.0600   -10.6530    60.9280 ha         1 63K       0.141000
     43 H5          16.6060   -12.9720    60.3130 ha         1 63K       0.141000
     44 H6          20.7640    -9.2840    56.2020 ha         1 63K       0.133000
     45 H7          15.1840    -7.3570    58.6610 ha         1 63K       0.138000
     46 H8          16.0320    -5.7890    56.9250 ha         1 63K       0.154000
     47 H9          18.3730   -12.8510    56.0730 ha         1 63K       0.138000
     48 H11         15.6050   -16.6470    64.1730 h1         1 63K       0.042450
     49 H12         19.1420   -17.8460    66.0280 h1         1 63K       0.042450
     50 H13         18.1140   -16.6790    66.8780 h1         1 63K       0.042450
     51 H14         14.3300   -17.7610    66.0250 h1         1 63K       0.054450
     52 H15         15.3720   -18.8920    65.1270 h1         1 63K       0.054450
     53 H16         17.4370   -19.5880    66.2080 h1         1 63K       0.054450
     54 H17         17.7710   -18.9140    67.8220 h1         1 63K       0.054450
     55 H18         19.2560   -17.3620    62.8450 h1         1 63K       0.071200
     56 H19         20.1700   -17.0020    64.3080 h1         1 63K       0.071200
     57 H20         18.4150   -15.2740    64.9190 h1         1 63K       0.040700
     58 H21         17.5340   -15.7150    63.4540 h1         1 63K       0.040700
     59 H22         21.1350   -13.4700    61.8580 hn         1 63K       0.336500
     60 H23         20.7960   -14.9250    63.4540 hn         1 63K       0.315500
     61 H10         15.9690   -15.9610    65.7690 h1         1 63K       0.042450
@<TRIPOS>BOND
     1     1     4 ar  
     2     1    10 ar  
     3     1    39 1   
     4     2     5 ar  
     5     2    10 ar  
     6     2    40 1   
     7     3     6 ar  
     8     3    11 ar  
     9     3    41 1   
    10     4    12 ar  
    11     4    42 1   
    12     5    12 ar  
    13     5    43 1   
    14     6    14 ar  
    15     6    44 1   
    16     7     8 2   
    17     7    15 1   
    18     7    45 1   
    19     8    16 1   
    20     8    46 1   
    21     9    13 ar  
    22     9    14 ar  
    23     9    47 1   
    24    10    15 1   
    25    11    13 ar  
    26    11    26 1   
    27    12    36 1   
    28    13    37 1   
    29    14    38 1   
    30    15    27 2   
    31    16    29 2   
    32    16    30 1   
    33    17    28 2   
    34    17    30 1   
    35    17    38 1   
    36    18    26 2   
    37    18    31 1   
    38    18    37 1   
    39    19    31 1   
    40    19    32 1   
    41    19    34 2   
    42    20    22 1   
    43    20    33 1   
    44    20    48 1   
    45    20    61 1   
    46    21    23 1   
    47    21    33 1   
    48    21    49 1   
    49    21    50 1   
    50    22    35 1   
    51    22    51 1   
    52    22    52 1   
    53    23    35 1   
    54    23    53 1   
    55    23    54 1   
    56    24    25 1   
    57    24    32 1   
    58    24    55 1   
    59    24    56 1   
    60    25    33 1   
    61    25    57 1   
    62    25    58 1   
    63    27    30 1   
    64    28    29 1   
    65    31    59 1   
    66    32    60 1   
@<TRIPOS>SUBSTRUCTURE
     1 63K         1 TEMP              0 ****  ****    0 ROOT
