@<TRIPOS>MOLECULE
63L
   23    23     1     0     0
SMALL
No Charge or Current Charge


@<TRIPOS>ATOM
      1 C1           0.7040    -0.6030    -0.0170 cc         1 63L      -0.360600
      2 C2          -0.6010    -0.8950     0.2120 cd         1 63L       0.363000
      3 C3           0.6610     0.7320    -0.4530 cc         1 63L       0.455300
      4 N6          -1.1190    -2.1130     0.5720 nv         1 63L      -1.082000
      5 C12          1.6560     3.3110     0.0500 c3         1 63L      -0.004100
      6 C4           1.9030    -1.4330     0.1540 c          1 63L       0.646700
      7 N5          -1.3970     0.2370    -0.0360 n          1 63L       0.084000
      8 N7          -0.5400     1.2790    -0.4700 nd         1 63L      -0.578800
      9 S8           2.0290     1.7550    -0.8760 ss         1 63L      -0.250300
     10 N9           1.7280    -2.6110     0.7770 nt         1 63L      -0.597000
     11 O10          3.0210    -1.1150    -0.2040 o          1 63L      -0.597100
     12 N13         -3.3860     1.4730    -0.1780 nt         1 63L      -0.579000
     13 O14         -3.5160    -0.6470     0.4910 o          1 63L      -0.635100
     14 H1          -0.7800    -2.9240     0.0560 hn         1 63L       0.503000
     15 H2          -2.1350    -2.1280     0.7030 hn         1 63L       0.503000
     16 H3           1.5530     3.0900     1.1200 h1         1 63L       0.065367
     17 H4           2.4730     4.0290    -0.0940 h1         1 63L       0.065367
     18 H5           0.7220     3.7510    -0.3200 h1         1 63L       0.065367
     19 H6           2.5240    -3.2090     0.9420 hn         1 63L       0.301000
     20 H7           0.8210    -2.8300     1.1630 hn         1 63L       0.301000
     21 H8          -4.3840     1.5810    -0.0930 hn         1 63L       0.344000
     22 H9          -2.8000     2.2350    -0.4860 hn         1 63L       0.344000
     23 C11         -2.8140     0.2850     0.1200 c          1 63L       0.644900
@<TRIPOS>BOND
     1     1     2 2   
     2     1     3 1   
     3     1     6 1   
     4     2     4 1   
     5     2     7 1   
     6     3     8 2   
     7     3     9 1   
     8     4    14 1   
     9     4    15 1   
    10     5     9 1   
    11     5    16 1   
    12     5    17 1   
    13     5    18 1   
    14     6    10 1   
    15     6    11 2   
    16     7     8 1   
    17     7    23 1   
    18    10    19 1   
    19    10    20 1   
    20    12    21 1   
    21    12    22 1   
    22    12    23 1   
    23    13    23 2   
@<TRIPOS>SUBSTRUCTURE
     1 63L         1 TEMP              0 ****  ****    0 ROOT
