@<TRIPOS>MOLECULE
63L
   23    23     1     0     0
SMALL
bcc


@<TRIPOS>ATOM
      1 C1           0.6900    -0.6750     0.1140 cc         1 63L      -0.425900
      2 C2          -0.6590    -1.0080     0.1980 cd         1 63L       0.275300
      3 C3           0.6980     0.7390    -0.0370 cc         1 63L       0.520600
      4 N6          -1.2430    -2.2100     0.3430 nv         1 63L      -0.833200
      5 C12          1.3960     3.3700    -0.1690 c3         1 63L      -0.052000
      6 C4           1.8800    -1.5130     0.1750 c          1 63L       0.713700
      7 N5          -1.3380     0.1730     0.1250 n          1 63L       0.033300
      8 N7          -0.5010     1.2450    -0.0150 nd         1 63L      -0.578800
      9 S8           2.1260     1.7170    -0.2130 ss         1 63L      -0.202400
     10 N9           1.7260    -2.7660     0.6690 nt         1 63L      -0.664000
     11 O10          2.9610    -1.0900    -0.2200 o          1 63L      -0.597100
     12 N13         -3.0960     1.6410     0.0050 nt         1 63L      -0.646000
     13 O14         -3.4850    -0.5830     0.2460 o          1 63L      -0.635100
     14 H1          -0.7300    -3.0100     0.0090 hn         1 63L       0.447800
     15 H2          -2.2430    -2.2610     0.2330 hn         1 63L       0.447800
     16 H3           0.9090     3.5640     0.7840 h1         1 63L       0.065367
     17 H4           2.2250     4.0640    -0.2930 h1         1 63L       0.065367
     18 H5           0.6870     3.5140    -0.9800 h1         1 63L       0.065367
     19 H6           2.5650    -3.3070     0.8170 hn         1 63L       0.301000
     20 H7           0.9800    -2.9670     1.3160 hn         1 63L       0.301000
     21 H8          -4.0760     1.8690    -0.0040 hn         1 63L       0.344000
     22 H9          -2.4190     2.3770    -0.1030 hn         1 63L       0.344000
     23 C11         -2.7300     0.3680     0.1310 c          1 63L       0.711900
@<TRIPOS>BOND
     1     1     2 2   
     2     1     3 1   
     3     1     6 1   
     4     2     4 1   
     5     2     7 1   
     6     3     8 2   
     7     3     9 1   
     8     4    14 1   
     9     4    15 1   
    10     5     9 1   
    11     5    16 1   
    12     5    17 1   
    13     5    18 1   
    14     6    10 1   
    15     6    11 2   
    16     7     8 1   
    17     7    23 1   
    18    10    19 1   
    19    10    20 1   
    20    12    21 1   
    21    12    22 1   
    22    12    23 1   
    23    13    23 2   
@<TRIPOS>SUBSTRUCTURE
     1 63L         1 TEMP              0 ****  ****    0 ROOT
