@<TRIPOS>MOLECULE
63M
   45    47     1     0     0
SMALL
No Charge or Current Charge


@<TRIPOS>ATOM
      1 C4         -48.6870    -1.6710   -21.4290 c3         1 63M      -0.105100
      2 C14        -53.7990    -0.5810   -24.8350 cc         1 63M       0.670900
      3 C6         -51.1490     0.3260   -21.4760 c          1 63M       0.652300
      4 C8         -52.1310     1.0610   -22.2640 cc         1 63M      -0.348800
      5 C9         -52.4520     2.4230   -22.0530 cc         1 63M       0.455500
      6 C12        -52.9190     0.6680   -23.2940 cd         1 63M       0.438500
      7 C3         -50.4670    -2.1480   -19.6710 c3         1 63M      -0.105100
      8 C1         -50.5040    -3.3640   -21.8750 c3         1 63M      -0.105100
      9 C2         -50.1760    -2.0190   -21.1880 c3         1 63M       0.142400
     10 N5         -51.0390    -1.0050   -21.8020 ns         1 63M      -0.501900
     11 O7         -50.4950     0.8600   -20.5950 o          1 63M      -0.629100
     12 N10        -53.3880     2.9210   -22.8620 nd         1 63M      -0.572100
     13 N11        -53.6500     1.7980   -23.6170 na         1 63M       0.084900
     14 N13        -52.9190    -0.5920   -23.8550 nd         1 63M      -0.732000
     15 C15        -54.6500     0.5090   -25.2450 cc         1 63M      -0.260000
     16 C16        -54.5950     1.7590   -24.6360 cd         1 63M       0.011000
     17 S18        -53.0800    -2.0270   -26.8740 sy         1 63M       1.260600
     18 O19        -54.1010    -2.5690   -27.7700 o          1 63M      -0.528500
     19 O20        -52.3430    -0.7940   -27.1530 o          1 63M      -0.528500
     20 C21        -51.9740    -3.3310   -26.3490 cc         1 63M      -0.356500
     21 C22        -52.1720    -4.6850   -26.3320 cd         1 63M      -0.108000
     22 C23        -50.9860    -5.2690   -25.8510 cd         1 63M       0.230900
     23 N24        -50.0590    -4.3720   -25.5650 nc         1 63M      -0.482800
     24 N25        -50.6770    -3.1700   -25.8640 na         1 63M       0.184800
     25 C26        -49.9420    -1.9120   -25.6500 c3         1 63M       0.048900
     26 H1         -48.4040    -0.7410   -20.9240 hc         1 63M       0.044811
     27 H2         -48.0350    -2.4670   -21.0480 hc         1 63M       0.044811
     28 H3         -48.4830    -1.5520   -22.5000 hc         1 63M       0.044811
     29 H4         -52.0210     3.0780   -21.3070 h4         1 63M       0.071800
     30 H5         -50.1820    -1.2430   -19.1240 hc         1 63M       0.044811
     31 H6         -51.5330    -2.3320   -19.4930 hc         1 63M       0.044811
     32 H7         -49.9030    -2.9840   -19.2380 hc         1 63M       0.044811
     33 H8         -49.8920    -4.1760   -21.4640 hc         1 63M       0.044811
     34 H9         -51.5590    -3.6300   -21.7350 hc         1 63M       0.044811
     35 H10        -50.3100    -3.3080   -22.9510 hc         1 63M       0.044811
     36 H11        -51.6530    -1.2990   -22.5560 hn         1 63M       0.334500
     37 H12        -55.3420     0.3500   -26.0640 ha         1 63M       0.149000
     38 H13        -55.1760     2.6430   -24.8710 h4         1 63M       0.171000
     39 H14        -54.8700    -1.8440   -25.8440 hn         1 63M       0.530000
     40 H15        -53.0690    -5.2150   -26.6370 ha         1 63M       0.149000
     41 H16        -50.7720    -6.3200   -25.7060 h4         1 63M       0.047100
     42 H17        -48.9880    -2.1170   -25.1490 h1         1 63M       0.076700
     43 H18        -49.7440    -1.4350   -26.6170 h1         1 63M       0.076700
     44 H19        -50.5350    -1.2390   -25.0230 h1         1 63M       0.076700
     45 N17        -53.9370    -1.7370   -25.4870 nu         1 63M      -0.902000
@<TRIPOS>BOND
     1     1     9 1   
     2     1    26 1   
     3     1    27 1   
     4     1    28 1   
     5     2    14 2   
     6     2    15 1   
     7     2    45 1   
     8     3     4 1   
     9     3    10 1   
    10     3    11 2   
    11     4     5 1   
    12     4     6 2   
    13     5    12 2   
    14     5    29 1   
    15     6    13 1   
    16     6    14 1   
    17     7     9 1   
    18     7    30 1   
    19     7    31 1   
    20     7    32 1   
    21     8     9 1   
    22     8    33 1   
    23     8    34 1   
    24     8    35 1   
    25     9    10 1   
    26    10    36 1   
    27    12    13 1   
    28    13    16 1   
    29    15    16 2   
    30    15    37 1   
    31    16    38 1   
    32    17    18 2   
    33    17    19 2   
    34    17    20 1   
    35    17    45 1   
    36    20    21 2   
    37    20    24 1   
    38    21    22 1   
    39    21    40 1   
    40    22    23 2   
    41    22    41 1   
    42    23    24 1   
    43    24    25 1   
    44    25    42 1   
    45    25    43 1   
    46    25    44 1   
    47    39    45 1   
@<TRIPOS>SUBSTRUCTURE
     1 63M         1 TEMP              0 ****  ****    0 ROOT
