@<TRIPOS>MOLECULE
63M
   45    47     1     0     0
SMALL
abcg2


@<TRIPOS>ATOM
      1 C4         -48.5920    -0.7120   -21.3600 c3         1 63M      -0.105100
      2 C14        -53.5990    -0.0250   -25.2480 cc         1 63M       0.670900
      3 C6         -51.6330    -0.0960   -21.1640 c          1 63M       0.652300
      4 C8         -52.8080     0.5680   -21.7550 cc         1 63M      -0.348800
      5 C9         -53.7000     1.4360   -21.0940 cc         1 63M       0.455500
      6 C12        -53.3010     0.4960   -23.0600 cd         1 63M       0.438500
      7 C3         -49.9800    -2.6510   -20.5290 c3         1 63M      -0.105100
      8 C1         -49.4020    -2.4700   -22.9530 c3         1 63M      -0.105100
      9 C2         -49.7370    -1.6780   -21.6890 c3         1 63M       0.142400
     10 N5         -50.9660    -0.9220   -21.9970 ns         1 63M      -0.501900
     11 O7         -51.3160     0.1130   -19.9860 o          1 63M      -0.629100
     12 N10        -54.6760     1.8860   -21.8760 nd         1 63M      -0.572100
     13 N11        -54.4290     1.3060   -23.0820 na         1 63M       0.084900
     14 N13        -52.8950    -0.1720   -24.1510 nd         1 63M      -0.732000
     15 C15        -54.7650     0.7900   -25.3270 cc         1 63M      -0.260000
     16 C16        -55.1630     1.4540   -24.2090 cd         1 63M       0.011000
     17 S18        -51.8070    -1.5240   -26.6630 sy         1 63M       1.260600
     18 O19        -51.8460    -1.8570   -28.0630 o          1 63M      -0.528500
     19 O20        -50.6870    -0.7840   -26.1560 o          1 63M      -0.528500
     20 C21        -51.9900    -2.9910   -25.7250 cc         1 63M      -0.356500
     21 C22        -53.0470    -3.4280   -24.9490 cd         1 63M      -0.108000
     22 C23        -52.6170    -4.6720   -24.4650 cd         1 63M       0.230900
     23 N24        -51.3970    -4.9730   -24.9130 nc         1 63M      -0.482800
     24 N25        -51.0200    -3.9420   -25.6810 na         1 63M       0.184800
     25 C26        -49.7200    -3.9410   -26.3350 c3         1 63M       0.048900
     26 H1         -48.8270    -0.1170   -20.4790 hc         1 63M       0.044811
     27 H2         -47.6770    -1.2750   -21.1660 hc         1 63M       0.044811
     28 H3         -48.4110    -0.0390   -22.2000 hc         1 63M       0.044811
     29 H4         -53.6560     1.7460   -20.0620 h4         1 63M       0.071800
     30 H5         -50.2230    -2.1160   -19.6130 hc         1 63M       0.044811
     31 H6         -50.8020    -3.3270   -20.7710 hc         1 63M       0.044811
     32 H7         -49.0810    -3.2470   -20.3580 hc         1 63M       0.044811
     33 H8         -48.4760    -3.0270   -22.8080 hc         1 63M       0.044811
     34 H9         -50.1970    -3.1810   -23.1800 hc         1 63M       0.044811
     35 H10        -49.2750    -1.8040   -23.8080 hc         1 63M       0.044811
     36 H11        -51.3220    -0.9960   -22.9410 hn         1 63M       0.334500
     37 H12        -55.3190     0.8830   -26.2490 ha         1 63M       0.149000
     38 H13        -56.0270     2.0980   -24.1510 h4         1 63M       0.171000
     39 H14        -53.8470    -0.7260   -27.1810 hn         1 63M       0.530000
     40 H15        -53.9770    -2.9220   -24.7630 ha         1 63M       0.149000
     41 H16        -53.1400    -5.3550   -23.8150 h4         1 63M       0.047100
     42 H17        -49.2480    -4.8930   -26.1140 h1         1 63M       0.076700
     43 H18        -49.8450    -3.8320   -27.4110 h1         1 63M       0.076700
     44 H19        -49.1080    -3.1270   -25.9520 h1         1 63M       0.076700
     45 N17        -53.2110    -0.7060   -26.3930 nu         1 63M      -0.902000
@<TRIPOS>BOND
     1     1     9 1   
     2     1    26 1   
     3     1    27 1   
     4     1    28 1   
     5     2    14 2   
     6     2    15 1   
     7     2    45 1   
     8     3     4 1   
     9     3    10 1   
    10     3    11 2   
    11     4     5 1   
    12     4     6 2   
    13     5    12 2   
    14     5    29 1   
    15     6    13 1   
    16     6    14 1   
    17     7     9 1   
    18     7    30 1   
    19     7    31 1   
    20     7    32 1   
    21     8     9 1   
    22     8    33 1   
    23     8    34 1   
    24     8    35 1   
    25     9    10 1   
    26    10    36 1   
    27    12    13 1   
    28    13    16 1   
    29    15    16 2   
    30    15    37 1   
    31    16    38 1   
    32    17    18 2   
    33    17    19 2   
    34    17    20 1   
    35    17    45 1   
    36    20    21 2   
    37    20    24 1   
    38    21    22 1   
    39    21    40 1   
    40    22    23 2   
    41    22    41 1   
    42    23    24 1   
    43    24    25 1   
    44    25    42 1   
    45    25    43 1   
    46    25    44 1   
    47    39    45 1   
@<TRIPOS>SUBSTRUCTURE
     1 63M         1 TEMP              0 ****  ****    0 ROOT
