@<TRIPOS>MOLECULE
63N
   50    54     1     0     0
SMALL
No Charge or Current Charge


@<TRIPOS>ATOM
      1 C14        -55.3360     0.7490   -24.3050 ca         1 63N       0.401900
      2 C5         -51.1510    -0.0940   -19.0060 cc         1 63N       0.421700
      3 C7         -53.0030     0.8590   -19.6120 ca         1 63N      -0.016600
      4 C8         -52.5130     0.2480   -20.7270 ca         1 63N      -0.031200
      5 C9         -53.2020     0.3110   -21.9430 ca         1 63N      -0.183000
      6 C10        -54.4160     1.0310   -21.9400 ca         1 63N       0.594900
      7 C12        -54.2230     1.5710   -19.7010 ca         1 63N       0.438900
      8 C3         -50.9850    -2.6380   -21.2990 c3         1 63N      -0.108600
      9 C1         -49.0110    -1.0470   -20.9940 c3         1 63N      -0.108600
     10 N4         -51.3430    -0.3540   -20.3690 na         1 63N      -0.191600
     11 N6         -52.1590     0.6600   -18.5110 nd         1 63N      -0.557100
     12 N11        -54.9230     1.6540   -20.8680 nb         1 63N      -0.748000
     13 N13        -55.2480     1.2240   -23.0060 nu         1 63N      -0.900800
     14 C15        -56.3370     1.2330   -25.1510 ca         1 63N      -0.282000
     15 C16        -56.3920     0.7150   -26.4530 ca         1 63N       0.139900
     16 N17        -55.5150    -0.2160   -26.8750 nb         1 63N      -0.206000
     17 C18        -54.5830    -0.6290   -25.9880 ca         1 63N       0.261500
     18 N19        -54.4640    -0.1820   -24.7190 nb         1 63N      -0.268000
     19 C20        -53.6310    -1.6390   -26.4470 cc         1 63N      -0.250500
     20 C21        -53.5150    -2.2630   -27.6940 cc         1 63N       0.320900
     21 N22        -52.5270    -3.1330   -27.7540 nd         1 63N      -0.497800
     22 N23        -51.9580    -3.0700   -26.4600 na         1 63N      -0.009400
     23 C24        -52.6450    -2.1470   -25.6510 cd         1 63N      -0.071000
     24 S25        -50.5910    -4.0540   -25.9770 s6         1 63N       1.305200
     25 O26        -49.8250    -4.4270   -27.1780 o          1 63N      -0.522500
     26 O27        -49.9520    -3.4060   -24.8200 o          1 63N      -0.522500
     27 C28        -51.3950    -5.6150   -25.3510 cx         1 63N      -0.452700
     28 C29        -50.7630    -6.4360   -24.2430 cx         1 63N      -0.059400
     29 C30        -52.0430    -5.6690   -23.9810 cx         1 63N      -0.059400
     30 H1         -50.2980    -0.4690   -18.4530 h5         1 63N       0.065800
     31 H2         -52.8160    -0.1640   -22.8330 ha         1 63N       0.158000
     32 H3         -54.6450     2.0760   -18.8330 h4         1 63N       0.036100
     33 H4         -52.0400    -2.7080   -21.5900 hc         1 63N       0.050700
     34 H5         -50.3950    -3.2250   -22.0120 hc         1 63N       0.050700
     35 H6         -50.8720    -3.0890   -20.3060 hc         1 63N       0.050700
     36 H7         -48.6980     0.0040   -21.0030 hc         1 63N       0.050700
     37 H8         -48.7620    -1.4760   -20.0160 hc         1 63N       0.050700
     38 H9         -48.4290    -1.5790   -21.7560 hc         1 63N       0.050700
     39 H10        -50.6710    -0.7700   -22.3020 h1         1 63N       0.071700
     40 H11        -56.0030     1.8440   -22.7360 hn         1 63N       0.516000
     41 H12        -57.0490     1.9840   -24.8210 ha         1 63N       0.136000
     42 H13        -57.1440     1.0460   -27.1670 h4         1 63N       0.026100
     43 H14        -54.1300    -2.1060   -28.5700 h4         1 63N       0.057100
     44 H15        -52.3750    -1.9470   -24.6190 h4         1 63N       0.181000
     45 H16        -51.8790    -6.1120   -26.1890 h1         1 63N       0.150700
     46 H17        -50.8290    -7.5200   -24.3090 hc         1 63N       0.089950
     47 H18        -49.8520    -6.0690   -23.7740 hc         1 63N       0.089950
     48 H19        -51.9840    -4.7920   -23.3390 hc         1 63N       0.089950
     49 H20        -52.9620    -6.2420   -23.8720 hc         1 63N       0.089950
     50 C2         -50.5220    -1.1670   -21.2890 c3         1 63N       0.100300
@<TRIPOS>BOND
     1     1    13 1   
     2     1    14 ar  
     3     1    18 ar  
     4     2    10 1   
     5     2    11 2   
     6     2    30 1   
     7     3     4 ar  
     8     3     7 ar  
     9     3    11 1   
    10     4     5 ar  
    11     4    10 1   
    12     5     6 ar  
    13     5    31 1   
    14     6    12 ar  
    15     6    13 1   
    16     7    12 ar  
    17     7    32 1   
    18     8    33 1   
    19     8    34 1   
    20     8    35 1   
    21     8    50 1   
    22     9    36 1   
    23     9    37 1   
    24     9    38 1   
    25     9    50 1   
    26    10    50 1   
    27    13    40 1   
    28    14    15 ar  
    29    14    41 1   
    30    15    16 ar  
    31    15    42 1   
    32    16    17 ar  
    33    17    18 ar  
    34    17    19 1   
    35    19    20 1   
    36    19    23 2   
    37    20    21 2   
    38    20    43 1   
    39    21    22 1   
    40    22    23 1   
    41    22    24 1   
    42    23    44 1   
    43    24    25 2   
    44    24    26 2   
    45    24    27 1   
    46    27    28 1   
    47    27    29 1   
    48    27    45 1   
    49    28    29 1   
    50    28    46 1   
    51    28    47 1   
    52    29    48 1   
    53    29    49 1   
    54    39    50 1   
@<TRIPOS>SUBSTRUCTURE
     1 63N         1 TEMP              0 ****  ****    0 ROOT
