@<TRIPOS>MOLECULE
63N
   50    54     1     0     0
SMALL
abcg2


@<TRIPOS>ATOM
      1 C14        -55.4380     0.6780   -24.1830 ca         1 63N       0.401900
      2 C5         -50.9360     0.1230   -19.3310 cc         1 63N       0.421700
      3 C7         -52.7190     1.2020   -19.7990 ca         1 63N      -0.016600
      4 C8         -52.4660     0.3490   -20.8900 ca         1 63N      -0.031200
      5 C9         -53.3000     0.3080   -21.9980 ca         1 63N      -0.183000
      6 C10        -54.3960     1.1670   -21.9470 ca         1 63N       0.594900
      7 C12        -53.8450     2.0160   -19.8580 ca         1 63N       0.438900
      8 C3         -51.4930    -2.6960   -21.2190 c3         1 63N      -0.108600
      9 C1         -49.2310    -1.5670   -21.0710 c3         1 63N      -0.108600
     10 N4         -51.3150    -0.3300   -20.5720 na         1 63N      -0.191600
     11 N6         -51.7350     1.0370   -18.8330 nd         1 63N      -0.557100
     12 N11        -54.6600     1.9910   -20.9080 nb         1 63N      -0.748000
     13 N13        -55.3580     1.2700   -22.9570 nu         1 63N      -0.900800
     14 C15        -56.5280     0.9780   -25.0280 ca         1 63N      -0.282000
     15 C16        -56.5490     0.3570   -26.2520 ca         1 63N       0.139900
     16 N17        -55.5940    -0.5000   -26.6640 nb         1 63N      -0.206000
     17 C18        -54.6060    -0.7170   -25.7970 ca         1 63N       0.261500
     18 N19        -54.4900    -0.1710   -24.5800 nb         1 63N      -0.268000
     19 C20        -53.5360    -1.6350   -26.1870 cc         1 63N      -0.250500
     20 C21        -53.3270    -2.2830   -27.4360 cc         1 63N       0.320900
     21 N22        -52.2400    -3.0310   -27.4260 nd         1 63N      -0.497800
     22 N23        -51.7250    -2.8670   -26.1720 na         1 63N      -0.009400
     23 C24        -52.4880    -2.0500   -25.3960 cd         1 63N      -0.071000
     24 S25        -50.4100    -3.8230   -25.6530 s6         1 63N       1.305200
     25 O26        -49.4430    -3.8030   -26.7130 o          1 63N      -0.522500
     26 O27        -50.0810    -3.3010   -24.3550 o          1 63N      -0.522500
     27 C28        -51.1250    -5.4100   -25.5230 cx         1 63N      -0.452700
     28 C29        -50.6670    -6.3090   -24.4010 cx         1 63N      -0.059400
     29 C30        -52.0340    -5.7060   -24.3620 cx         1 63N      -0.059400
     30 H1         -50.0530    -0.2550   -18.8400 h5         1 63N       0.065800
     31 H2         -53.1370    -0.3330   -22.8450 ha         1 63N       0.158000
     32 H3         -54.0970     2.6940   -19.0490 h4         1 63N       0.036100
     33 H4         -52.5460    -2.5550   -21.4640 hc         1 63N       0.050700
     34 H5         -51.0870    -3.4570   -21.8850 hc         1 63N       0.050700
     35 H6         -51.4180    -3.0510   -20.1890 hc         1 63N       0.050700
     36 H7         -48.6950    -0.6210   -21.1600 hc         1 63N       0.050700
     37 H8         -49.0800    -1.9650   -20.0660 hc         1 63N       0.050700
     38 H9         -48.8010    -2.2750   -21.7790 hc         1 63N       0.050700
     39 H10        -50.8020    -1.0570   -22.4210 h1         1 63N       0.071700
     40 H11        -56.0950     1.9220   -22.7290 hn         1 63N       0.516000
     41 H12        -57.3060     1.6640   -24.7250 ha         1 63N       0.136000
     42 H13        -57.3600     0.5450   -26.9470 h4         1 63N       0.026100
     43 H14        -53.9310    -2.2150   -28.3260 h4         1 63N       0.057100
     44 H15        -52.2280    -1.8340   -24.3770 h4         1 63N       0.181000
     45 H16        -51.3360    -5.8260   -26.4980 h1         1 63N       0.150700
     46 H17        -50.5560    -7.3530   -24.6600 hc         1 63N       0.089950
     47 H18        -49.9280    -5.9170   -23.7160 hc         1 63N       0.089950
     48 H19        -52.2090    -4.9110   -23.6500 hc         1 63N       0.089950
     49 H20        -52.8910    -6.3250   -24.5880 hc         1 63N       0.089950
     50 C2         -50.7100    -1.3970   -21.3880 c3         1 63N       0.100300
@<TRIPOS>BOND
     1     1    13 1   
     2     1    14 ar  
     3     1    18 ar  
     4     2    10 1   
     5     2    11 2   
     6     2    30 1   
     7     3     4 ar  
     8     3     7 ar  
     9     3    11 1   
    10     4     5 ar  
    11     4    10 1   
    12     5     6 ar  
    13     5    31 1   
    14     6    12 ar  
    15     6    13 1   
    16     7    12 ar  
    17     7    32 1   
    18     8    33 1   
    19     8    34 1   
    20     8    35 1   
    21     8    50 1   
    22     9    36 1   
    23     9    37 1   
    24     9    38 1   
    25     9    50 1   
    26    10    50 1   
    27    13    40 1   
    28    14    15 ar  
    29    14    41 1   
    30    15    16 ar  
    31    15    42 1   
    32    16    17 ar  
    33    17    18 ar  
    34    17    19 1   
    35    19    20 1   
    36    19    23 2   
    37    20    21 2   
    38    20    43 1   
    39    21    22 1   
    40    22    23 1   
    41    22    24 1   
    42    23    44 1   
    43    24    25 2   
    44    24    26 2   
    45    24    27 1   
    46    27    28 1   
    47    27    29 1   
    48    27    45 1   
    49    28    29 1   
    50    28    46 1   
    51    28    47 1   
    52    29    48 1   
    53    29    49 1   
    54    39    50 1   
@<TRIPOS>SUBSTRUCTURE
     1 63N         1 TEMP              0 ****  ****    0 ROOT
