@<TRIPOS>MOLECULE
63O
   85    88     1     0     0
SMALL
No Charge or Current Charge


@<TRIPOS>ATOM
      1 C33          8.6490    -3.0380    -2.4570 c3         1 63O       0.088300
      2 C32          9.7840    -4.2270    -0.5300 c3         1 63O       0.088300
      3 N3          -6.2390     0.1910     0.8660 ns         1 63O      -0.477900
      4 C4          -9.8350     2.1810     1.8780 cc         1 63O       0.232900
      5 N2          -9.6940     3.3360     1.2630 nd         1 63O      -0.513800
      6 C7          -4.9280    -0.8230    -1.0500 c3         1 63O      -0.037100
      7 C6          -5.0370    -0.5970     0.4880 c3         1 63O       0.042700
      8 C9          -6.9820    -0.3480    -2.4800 ca         1 63O      -0.077000
      9 C13         -6.7650    -2.5550    -1.4820 ca         1 63O       0.164000
     10 C20         -0.2540    -1.3350     0.5220 ca         1 63O      -0.145000
     11 C21          3.0600     0.0880     1.8240 c3         1 63O      -0.052100
     12 C8          -6.2510    -1.2560    -1.6850 ca         1 63O      -0.121300
     13 N5           5.2030     1.0220     0.9390 ns         1 63O      -0.507900
     14 C18          1.5730    -0.0880     1.5480 ca         1 63O      -0.104300
     15 C16         -0.7320     0.6830     1.7820 ca         1 63O      -0.145000
     16 C19          1.1180    -1.1770     0.7830 ca         1 63O      -0.080500
     17 C26          7.9280     1.9780    -0.9100 c5         1 63O      -0.076400
     18 N1          -8.4490     3.2080     0.6540 na         1 63O       0.172800
     19 O1          -5.7750     2.1120    -0.2780 o          1 63O      -0.604100
     20 C2          -7.8450     1.9670     0.9100 cd         1 63O      -0.219600
     21 C3          -8.7520     1.3130     1.7020 cc         1 63O      -0.196000
     22 O3           5.8910    -1.0850     0.4210 o          1 63O      -0.613100
     23 O4           9.8690    -1.7540     0.7280 o          1 63O      -0.618100
     24 C5          -6.5300     1.4660     0.4330 c          1 63O       0.650700
     25 N6           9.2240    -2.9780    -1.0930 n          1 63O      -0.408800
     26 C10         -8.2060    -0.7330    -3.0550 ca         1 63O      -0.124000
     27 C11         -8.7100    -2.0280    -2.8450 ca         1 63O      -0.080000
     28 C12         -7.9860    -2.9390    -2.0580 ca         1 63O      -0.148000
     29 C14         -3.7360    -0.0270     1.1440 c          1 63O       0.602100
     30 C15         -1.1930    -0.4140     1.0220 ca         1 63O      -0.023000
     31 C17          0.6410     0.8420     2.0430 ca         1 63O      -0.080500
     32 C22          3.7730     0.8320     0.6780 c3         1 63O       0.102000
     33 C24          7.5920     0.4800     1.1600 c3         1 63O      -0.154400
     34 C25          8.5150     0.7850    -0.0680 c5         1 63O      -0.018000
     35 C27          9.1860     2.6770    -1.4710 c5         1 63O      -0.082900
     36 C28          9.9920     2.8030    -0.1630 c5         1 63O      -0.082900
     37 C29          9.9230     1.3490     0.3790 c5         1 63O      -0.076400
     38 C30          8.6750    -0.4890    -0.9720 c3         1 63O      -0.144400
     39 C31          9.3000    -1.7690    -0.3570 c          1 63O       0.622100
     40 H1           7.5630    -2.8860    -2.4090 h1         1 63O       0.039533
     41 H2           9.0980    -2.2630    -3.0900 h1         1 63O       0.039533
     42 H3           8.8460    -4.0140    -2.9170 h1         1 63O       0.039533
     43 H4          10.8800    -4.1650    -0.5160 h1         1 63O       0.039533
     44 H5           9.4190    -4.3720     0.4940 h1         1 63O       0.039533
     45 H6           9.4840    -5.0950    -1.1320 h1         1 63O       0.039533
     46 H7          -6.9330    -0.2420     1.4600 hn         1 63O       0.334500
     47 H9          -4.5630     0.0950    -1.5260 hc         1 63O       0.068700
     48 H10         -4.1650    -1.5850    -1.2570 hc         1 63O       0.068700
     49 H11         -5.1650    -1.5890     0.9400 h1         1 63O       0.076700
     50 H12         -6.6060     0.6580    -2.6500 ha         1 63O       0.127000
     51 H13         -0.5860    -2.1840    -0.0720 ha         1 63O       0.128000
     52 H14          3.2100     0.6420     2.7580 hc         1 63O       0.054200
     53 H15          3.5310    -0.8920     1.9690 hc         1 63O       0.054200
     54 H16          5.5180     1.9310     1.2590 hn         1 63O       0.309500
     55 H17         -1.4160     1.4290     2.1740 ha         1 63O       0.128000
     56 H18          1.8280    -1.9010     0.3880 ha         1 63O       0.115500
     57 H19          7.2520     1.6440    -1.7060 hc         1 63O       0.048450
     58 H20          7.3520     2.6750    -0.2890 hc         1 63O       0.048450
     59 H21         -6.9500     4.6380     0.2710 h1         1 63O       0.064033
     60 H22         -7.7370     3.9540    -1.1830 h1         1 63O       0.064033
     61 H23         -8.6040     5.1480    -0.1750 h1         1 63O       0.064033
     62 H24         -8.6880     0.3180     2.1300 ha         1 63O       0.146000
     63 H26         -8.7650    -0.0260    -3.6640 ha         1 63O       0.121000
     64 H27         -9.6580    -2.3230    -3.2910 ha         1 63O       0.121000
     65 H28         -8.3700    -3.9420    -1.8920 ha         1 63O       0.134000
     66 H29          0.9790     1.6940     2.6280 ha         1 63O       0.115500
     67 H30          3.6510     0.2710    -0.2580 h1         1 63O       0.057700
     68 H31          3.3090     1.8180     0.5410 h1         1 63O       0.057700
     69 H32          7.5310     1.3900     1.7690 hc         1 63O       0.071700
     70 H33          8.0310    -0.3120     1.7750 hc         1 63O       0.071700
     71 H34          9.7050     2.0750    -2.2270 hc         1 63O       0.042700
     72 H35          8.9590     3.6510    -1.9190 hc         1 63O       0.042700
     73 H36         11.0220     3.1350    -0.3350 hc         1 63O       0.042700
     74 H37          9.5310     3.5160     0.5310 hc         1 63O       0.042700
     75 H38         10.0630     1.3230     1.4660 hc         1 63O       0.048450
     76 H39         10.7440     0.7580    -0.0440 hc         1 63O       0.048450
     77 H40          7.7270    -0.7640    -1.4450 hc         1 63O       0.063200
     78 H41          9.2700    -0.2650    -1.8640 hc         1 63O       0.063200
     79 C23          6.1660     0.0490     0.7860 c          1 63O       0.598100
     80 N4          -2.5630    -0.6390     0.7120 ns         1 63O      -0.145000
     81 F1          -6.0840    -3.4480    -0.7290 f          1 63O      -0.187000
     82 O2          -3.7610     0.8690     1.9840 o          1 63O      -0.559100
     83 H8         -10.7370     1.9970     2.4480 h4         1 63O       0.041100
     84 C1          -7.9020     4.3060    -0.1580 c3         1 63O       0.072900
     85 H25         -2.7080    -1.3860     0.0460 hn         1 63O       0.150000
@<TRIPOS>BOND
     1     1    25 1   
     2     1    40 1   
     3     1    41 1   
     4     1    42 1   
     5     2    25 1   
     6     2    43 1   
     7     2    44 1   
     8     2    45 1   
     9     3     7 1   
    10     3    24 1   
    11     3    46 1   
    12     4     5 2   
    13     4    21 1   
    14     4    83 1   
    15     5    18 1   
    16     6     7 1   
    17     6    12 1   
    18     6    47 1   
    19     6    48 1   
    20     7    29 1   
    21     7    49 1   
    22     8    12 ar  
    23     8    26 ar  
    24     8    50 1   
    25     9    12 ar  
    26     9    28 ar  
    27     9    81 1   
    28    10    16 ar  
    29    10    30 ar  
    30    10    51 1   
    31    11    14 1   
    32    11    32 1   
    33    11    52 1   
    34    11    53 1   
    35    13    32 1   
    36    13    54 1   
    37    13    79 1   
    38    14    16 ar  
    39    14    31 ar  
    40    15    30 ar  
    41    15    31 ar  
    42    15    55 1   
    43    16    56 1   
    44    17    34 1   
    45    17    35 1   
    46    17    57 1   
    47    17    58 1   
    48    18    20 1   
    49    18    84 1   
    50    19    24 2   
    51    20    21 2   
    52    20    24 1   
    53    21    62 1   
    54    22    79 2   
    55    23    39 2   
    56    25    39 1   
    57    26    27 ar  
    58    26    63 1   
    59    27    28 ar  
    60    27    64 1   
    61    28    65 1   
    62    29    80 1   
    63    29    82 2   
    64    30    80 1   
    65    31    66 1   
    66    32    67 1   
    67    32    68 1   
    68    33    34 1   
    69    33    69 1   
    70    33    70 1   
    71    33    79 1   
    72    34    37 1   
    73    34    38 1   
    74    35    36 1   
    75    35    71 1   
    76    35    72 1   
    77    36    37 1   
    78    36    73 1   
    79    36    74 1   
    80    37    75 1   
    81    37    76 1   
    82    38    39 1   
    83    38    77 1   
    84    38    78 1   
    85    59    84 1   
    86    60    84 1   
    87    61    84 1   
    88    80    85 1   
@<TRIPOS>SUBSTRUCTURE
     1 63O         1 TEMP              0 ****  ****    0 ROOT
