@<TRIPOS>MOLECULE
63O
   85    88     1     0     0
SMALL
bcc


@<TRIPOS>ATOM
      1 C33          8.1880    -2.3490    -2.9080 c3         1 63O       0.088300
      2 C32          9.1580    -3.9380    -1.3220 c3         1 63O       0.088300
      3 N3          -6.0260     0.1680     0.8500 ns         1 63O      -0.544900
      4 C4          -8.8900     3.2210     1.7230 cc         1 63O       0.298200
      5 N2          -8.7670     3.8000     0.5400 nd         1 63O      -0.513800
      6 C7          -4.9220    -1.2540    -0.8690 c3         1 63O      -0.037100
      7 C6          -4.9530    -0.7530     0.5940 c3         1 63O       0.042700
      8 C9          -6.9400    -0.7140    -2.2870 ca         1 63O      -0.095000
      9 C13         -7.0000    -2.6830    -0.9760 ca         1 63O       0.128900
     10 C20         -0.2590    -1.5530     0.6390 ca         1 63O      -0.163000
     11 C21          3.0180    -0.0940     1.8940 c3         1 63O      -0.052100
     12 C8          -6.2970    -1.5600    -1.3870 ca         1 63O      -0.121300
     13 N5           5.1380     0.8350     1.0110 ns         1 63O      -0.574900
     14 C18          1.5570    -0.2770     1.5970 ca         1 63O      -0.104300
     15 C16         -0.7190     0.5800     1.6420 ca         1 63O      -0.163000
     16 C19          1.0850    -1.4070     0.9350 ca         1 63O      -0.098500
     17 C26          7.8980     2.1640    -0.5560 c5         1 63O      -0.076400
     18 N1          -7.7690     3.1820    -0.0700 na         1 63O       0.151400
     19 O1          -5.2660     1.7770    -0.5370 o          1 63O      -0.604100
     20 C2          -7.2420     2.1990     0.6950 cd         1 63O      -0.168900
     21 C3          -7.9540     2.1950     1.8790 cc         1 63O      -0.279300
     22 O3           5.9110    -1.1390     0.2410 o          1 63O      -0.613100
     23 O4           9.5420    -1.8080     0.3740 o          1 63O      -0.618100
     24 C5          -6.0890     1.3770     0.2730 c          1 63O       0.717700
     25 N6           8.8200    -2.5630    -1.6230 n          1 63O      -0.475800
     26 C10         -8.2220    -0.9810    -2.7460 ca         1 63O      -0.142000
     27 C11         -8.8910    -2.1150    -2.3070 ca         1 63O      -0.098000
     28 C12         -8.2760    -2.9800    -1.4120 ca         1 63O      -0.166000
     29 C14         -3.6270    -0.1570     1.0950 c          1 63O       0.669100
     30 C15         -1.1800    -0.5650     0.9910 ca         1 63O       0.069600
     31 C17          0.6320     0.7050     1.9330 ca         1 63O      -0.098500
     32 C22          3.7440     0.5860     0.7280 c3         1 63O       0.102000
     33 C24          7.5050     0.3670     1.2070 c3         1 63O      -0.154400
     34 C25          8.4160     0.8220     0.0470 c5         1 63O      -0.018000
     35 C27          9.0900     3.1200    -0.5600 c5         1 63O      -0.082900
     36 C28          9.8540     2.7070     0.6910 c5         1 63O      -0.082900
     37 C29          9.8180     1.1830     0.6120 c5         1 63O      -0.076400
     38 C30          8.4940    -0.2110    -1.0820 c3         1 63O      -0.144400
     39 C31          8.9910    -1.5900    -0.7000 c          1 63O       0.689100
     40 H1           7.0990    -2.4300    -2.8520 h1         1 63O       0.039533
     41 H2           8.4430    -1.3800    -3.3300 h1         1 63O       0.039533
     42 H3           8.5450    -3.1050    -3.6060 h1         1 63O       0.039533
     43 H4           9.9530    -4.2960    -1.9790 h1         1 63O       0.039533
     44 H5           9.4910    -4.0320    -0.2940 h1         1 63O       0.039533
     45 H6           8.2870    -4.5800    -1.4640 h1         1 63O       0.039533
     46 H7          -6.7660    -0.1290     1.4630 hn         1 63O       0.334500
     47 H9          -4.4590    -0.5100    -1.5140 hc         1 63O       0.068700
     48 H10         -4.3040    -2.1520    -0.9260 hc         1 63O       0.068700
     49 H11         -5.1440    -1.6150     1.2390 h1         1 63O       0.076700
     50 H12         -6.4190     0.1720    -2.6290 ha         1 63O       0.145000
     51 H13         -0.6000    -2.4500     0.1340 ha         1 63O       0.146000
     52 H14          3.1380     0.5180     2.7910 hc         1 63O       0.054200
     53 H15          3.4900    -1.0570     2.0960 hc         1 63O       0.054200
     54 H16          5.3640     1.6700     1.5250 hn         1 63O       0.309500
     55 H17         -1.3940     1.3710     1.9230 ha         1 63O       0.146000
     56 H18          1.7720    -2.1960     0.6540 ha         1 63O       0.133500
     57 H19          7.4570     2.0360    -1.5470 hc         1 63O       0.048450
     58 H20          7.1120     2.5830     0.0760 hc         1 63O       0.048450
     59 H21         -6.4450     4.1120    -1.4120 h1         1 63O       0.064033
     60 H22         -7.3340     2.7290    -2.0710 h1         1 63O       0.064033
     61 H23         -8.1740     4.2560    -1.7720 h1         1 63O       0.064033
     62 H24         -7.8040     1.5620     2.7380 ha         1 63O       0.164000
     63 H26         -8.6970    -0.3060    -3.4450 ha         1 63O       0.139000
     64 H27         -9.8910    -2.3320    -2.6590 ha         1 63O       0.139000
     65 H28         -8.7770    -3.8720    -1.0580 ha         1 63O       0.152000
     66 H29          0.9690     1.6010     2.4430 ha         1 63O       0.133500
     67 H30          3.6700    -0.0310    -0.1680 h1         1 63O       0.057700
     68 H31          3.2680     1.5410     0.5030 h1         1 63O       0.057700
     69 H32          7.4490     1.1790     1.9380 hc         1 63O       0.071700
     70 H33          7.9600    -0.4840     1.7130 hc         1 63O       0.071700
     71 H34          9.7150     2.9560    -1.4430 hc         1 63O       0.042700
     72 H35          8.7870     4.1680    -0.5660 hc         1 63O       0.042700
     73 H36         10.8710     3.1020     0.7350 hc         1 63O       0.042700
     74 H37          9.3300     3.0600     1.5840 hc         1 63O       0.042700
     75 H38         10.0220     0.7010     1.5680 hc         1 63O       0.048450
     76 H39         10.5940     0.8460    -0.0800 hc         1 63O       0.048450
     77 H40          7.5200    -0.2970    -1.5650 hc         1 63O       0.063200
     78 H41          9.1610     0.1870    -1.8570 hc         1 63O       0.063200
     79 C23          6.1190    -0.0570     0.7790 c          1 63O       0.665100
     80 N4          -2.5190    -0.7920     0.6430 ns         1 63O      -0.471100
     81 F1          -6.4090    -3.5230    -0.1050 f          1 63O      -0.151900
     82 O2          -3.6090     0.7730     1.8750 o          1 63O      -0.559100
     83 H8          -9.6410     3.5570     2.4200 h4         1 63O       0.041100
     84 C1          -7.3980     3.5900    -1.4100 c3         1 63O       0.043600
     85 H25         -2.6610    -1.5990     0.0560 hn         1 63O       0.316500
@<TRIPOS>BOND
     1     1    25 1   
     2     1    40 1   
     3     1    41 1   
     4     1    42 1   
     5     2    25 1   
     6     2    43 1   
     7     2    44 1   
     8     2    45 1   
     9     3     7 1   
    10     3    24 1   
    11     3    46 1   
    12     4     5 2   
    13     4    21 1   
    14     4    83 1   
    15     5    18 1   
    16     6     7 1   
    17     6    12 1   
    18     6    47 1   
    19     6    48 1   
    20     7    29 1   
    21     7    49 1   
    22     8    12 ar  
    23     8    26 ar  
    24     8    50 1   
    25     9    12 ar  
    26     9    28 ar  
    27     9    81 1   
    28    10    16 ar  
    29    10    30 ar  
    30    10    51 1   
    31    11    14 1   
    32    11    32 1   
    33    11    52 1   
    34    11    53 1   
    35    13    32 1   
    36    13    54 1   
    37    13    79 1   
    38    14    16 ar  
    39    14    31 ar  
    40    15    30 ar  
    41    15    31 ar  
    42    15    55 1   
    43    16    56 1   
    44    17    34 1   
    45    17    35 1   
    46    17    57 1   
    47    17    58 1   
    48    18    20 1   
    49    18    84 1   
    50    19    24 2   
    51    20    21 2   
    52    20    24 1   
    53    21    62 1   
    54    22    79 2   
    55    23    39 2   
    56    25    39 1   
    57    26    27 ar  
    58    26    63 1   
    59    27    28 ar  
    60    27    64 1   
    61    28    65 1   
    62    29    80 1   
    63    29    82 2   
    64    30    80 1   
    65    31    66 1   
    66    32    67 1   
    67    32    68 1   
    68    33    34 1   
    69    33    69 1   
    70    33    70 1   
    71    33    79 1   
    72    34    37 1   
    73    34    38 1   
    74    35    36 1   
    75    35    71 1   
    76    35    72 1   
    77    36    37 1   
    78    36    73 1   
    79    36    74 1   
    80    37    75 1   
    81    37    76 1   
    82    38    39 1   
    83    38    77 1   
    84    38    78 1   
    85    59    84 1   
    86    60    84 1   
    87    61    84 1   
    88    80    85 1   
@<TRIPOS>SUBSTRUCTURE
     1 63O         1 TEMP              0 ****  ****    0 ROOT
