@<TRIPOS>MOLECULE
63P
   88    93     1     0     0
SMALL
No Charge or Current Charge


@<TRIPOS>ATOM
      1 C36         -4.0570     0.3950     4.2590 cc         1 63P       0.232900
      2 C35         -3.7140     0.0700     2.9420 cc         1 63P      -0.198000
      3 C33         -4.6470    -1.5680     1.2080 c          1 63P       0.640700
      4 C37         -6.5490    -2.0400     3.7480 c3         1 63P       0.069900
      5 C34         -4.5910    -0.9010     2.5330 cd         1 63P      -0.228600
      6 C32          4.0080    -0.1460    -0.0110 c          1 63P       0.609100
      7 N3           4.9880    -1.0970     0.1720 ns         1 63P      -0.504900
      8 C4           4.3540    -3.4360    -0.4600 c3         1 63P      -0.041100
      9 N2          -1.2540    -2.0150    -0.5920 ns         1 63P      -0.137000
     10 C7           0.8330    -2.6870    -1.7970 ca         1 63P      -0.142000
     11 C6           2.1920    -3.0420    -1.7410 ca         1 63P      -0.074500
     12 C9           0.7950    -2.4660     0.6190 ca         1 63P      -0.142000
     13 C13         -4.3140    -0.3350    -1.9510 c3         1 63P      -0.046100
     14 C20         -0.0180     3.2210    -1.2250 ca         1 63P       0.128100
     15 C21         -0.0270     2.7670     0.1050 ca         1 63P      -0.155500
     16 C8           0.1210    -2.3860    -0.6140 ca         1 63P      -0.017000
     17 N5          -5.0810    -0.2900     4.7240 nd         1 63P      -0.507800
     18 C18         -4.4700     3.1570    -0.2850 ca         1 63P      -0.097000
     19 C16         -2.3890     2.9560    -1.5160 ca         1 63P       0.107100
     20 C19         -4.8280     1.8530    -0.6690 ca         1 63P       0.109000
     21 C26          3.7310     2.2690     0.8880 c5         1 63P       0.017300
     22 C1           8.5860    -3.9110    -1.8620 c3         1 63P       0.093300
     23 C3           5.2700    -2.2150    -0.7610 c3         1 63P       0.034700
     24 C5           2.8640    -3.1050    -0.5070 ca         1 63P      -0.104300
     25 C10          2.1540    -2.8240     0.6750 ca         1 63P      -0.074500
     26 C11         -2.1930    -1.8200    -1.6020 c          1 63P       0.601100
     27 O2          -1.9280    -1.9020    -2.7960 o          1 63P      -0.583100
     28 C12         -3.6310    -1.4540    -1.1130 c3         1 63P       0.015700
     29 C14         -3.9640     1.0870    -1.4940 ca         1 63P      -0.078300
     30 C15         -2.7400     1.6540    -1.9090 ca         1 63P      -0.109000
     31 C17         -3.2530     3.7130    -0.7120 ca         1 63P      -0.109000
     32 Cl1         -6.3670     1.2180    -0.0810 cl         1 63P      -0.204000
     33 O3          -1.1850     3.4860    -1.9080 os         1 63P      -0.251200
     34 C22          1.1820     2.4950     0.7630 ca         1 63P      -0.068000
     35 C23          2.4320     2.6690     0.1210 ca         1 63P      -0.070300
     36 C24          2.4170     3.1260    -1.2220 ca         1 63P      -0.068000
     37 C25          1.2060     3.4080    -1.8790 ca         1 63P      -0.155500
     38 C27          3.8220     3.1650     2.1670 c5         1 63P      -0.075400
     39 C28          4.0850     4.5820     1.5850 c5         1 63P      -0.077900
     40 C29          5.0200     4.3230     0.3620 c5         1 63P      -0.077900
     41 C30          5.0360     2.7710     0.1820 c5         1 63P      -0.075400
     42 C31          3.7440     0.7480     1.2080 c3         1 63P      -0.146400
     43 O4           3.3820    -0.0520    -1.0570 o          1 63P      -0.588100
     44 N4          -3.6830    -1.1210     0.3350 ns         1 63P      -0.499900
     45 O5          -5.4610    -2.4270     0.9060 o          1 63P      -0.579100
     46 N6          -5.4210    -1.1020     3.6460 na         1 63P       0.179800
     47 H36         -3.5800     1.1240     4.9000 h4         1 63P       0.043100
     48 H35         -2.9020     0.5310     2.3890 ha         1 63P       0.143000
     49 H37         -6.1890    -3.0620     3.5860 h1         1 63P       0.067367
     50 H38         -7.0070    -1.9700     4.7410 h1         1 63P       0.067367
     51 H39         -7.2980    -1.7920     2.9870 h1         1 63P       0.067367
     52 H33          5.4860    -1.0780     1.0540 hn         1 63P       0.325500
     53 H7           4.5710    -4.2370    -1.1770 hc         1 63P       0.059200
     54 H8           4.6170    -3.8400     0.5260 hc         1 63P       0.059200
     55 H13         -1.6300    -1.9080     0.3410 hn         1 63P       0.165000
     56 H10          0.3580    -2.6480    -2.7710 ha         1 63P       0.128000
     57 H9           2.7280    -3.2540    -2.6630 ha         1 63P       0.111000
     58 H11          0.2670    -2.2430     1.5440 ha         1 63P       0.128000
     59 H15         -4.0690    -0.4610    -3.0120 hc         1 63P       0.083200
     60 H14         -5.3970    -0.4960    -1.9070 hc         1 63P       0.083200
     61 H19         -0.9620     2.6170     0.6370 ha         1 63P       0.120500
     62 H18         -5.1380     3.7370     0.3470 ha         1 63P       0.135000
     63 H4           8.8550    -4.5070    -0.9800 h1         1 63P       0.042367
     64 H3           8.6660    -4.5370    -2.7600 h1         1 63P       0.042367
     65 H5           9.2740    -3.0600    -1.9510 h1         1 63P       0.042367
     66 H6           6.5300    -3.6900    -2.4280 hn         1 63P       0.320500
     67 H1           5.0750    -1.8740    -1.7870 h1         1 63P       0.090700
     68 H12          2.6580    -2.8650     1.6380 ha         1 63P       0.111000
     69 H2          -4.2000    -2.3790    -1.2730 h1         1 63P       0.109700
     70 H16         -2.0570     1.0880    -2.5380 ha         1 63P       0.152000
     71 H17         -2.9740     4.7200    -0.4110 ha         1 63P       0.137000
     72 H20          1.1400     2.1270     1.7850 ha         1 63P       0.110500
     73 H21          3.3330     3.2560    -1.7870 ha         1 63P       0.110500
     74 H22          1.2170     3.7550    -2.9090 ha         1 63P       0.120500
     75 H24          2.9250     3.1370     2.7940 hc         1 63P       0.046950
     76 H23          4.6540     2.8540     2.8110 hc         1 63P       0.046950
     77 H26          3.1510     5.0620     1.2690 hc         1 63P       0.043200
     78 H25          4.5460     5.2480     2.3230 hc         1 63P       0.043200
     79 H28          4.6450     4.8360    -0.5310 hc         1 63P       0.043200
     80 H27          6.0310     4.7080     0.5380 hc         1 63P       0.043200
     81 H29          5.9180     2.3530     0.6830 hc         1 63P       0.046950
     82 H30          5.1260     2.4580    -0.8630 hc         1 63P       0.046950
     83 H31          2.7860     0.4360     1.6380 hc         1 63P       0.060200
     84 H32          4.4940     0.5270     1.9760 hc         1 63P       0.060200
     85 H34         -3.1060    -0.3630     0.6770 hn         1 63P       0.320500
     86 C2           6.7740    -2.6090    -0.7010 c          1 63P       0.584100
     87 N1           7.2110    -3.4220    -1.7260 ns         1 63P      -0.500900
     88 O1           7.5330    -2.2310     0.1840 o          1 63P      -0.608100
@<TRIPOS>BOND
     1     1     2 1   
     2     1    17 2   
     3     1    47 1   
     4     2     5 2   
     5     2    48 1   
     6     3     5 1   
     7     3    44 1   
     8     3    45 2   
     9     4    46 1   
    10     4    49 1   
    11     4    50 1   
    12     4    51 1   
    13     5    46 1   
    14     6     7 1   
    15     6    42 1   
    16     6    43 2   
    17     7    23 1   
    18     7    52 1   
    19     8    23 1   
    20     8    24 1   
    21     8    53 1   
    22     8    54 1   
    23     9    16 1   
    24     9    26 1   
    25     9    55 1   
    26    10    11 ar  
    27    10    16 ar  
    28    10    56 1   
    29    11    24 ar  
    30    11    57 1   
    31    12    16 ar  
    32    12    25 ar  
    33    12    58 1   
    34    13    28 1   
    35    13    29 1   
    36    13    59 1   
    37    13    60 1   
    38    14    15 ar  
    39    14    33 1   
    40    14    37 ar  
    41    15    34 ar  
    42    15    61 1   
    43    17    46 1   
    44    18    20 ar  
    45    18    31 ar  
    46    18    62 1   
    47    19    30 ar  
    48    19    31 ar  
    49    19    33 1   
    50    20    29 ar  
    51    20    32 1   
    52    21    35 1   
    53    21    38 1   
    54    21    41 1   
    55    21    42 1   
    56    22    63 1   
    57    22    64 1   
    58    22    65 1   
    59    22    87 1   
    60    23    67 1   
    61    23    86 1   
    62    24    25 ar  
    63    25    68 1   
    64    26    27 2   
    65    26    28 1   
    66    28    44 1   
    67    28    69 1   
    68    29    30 ar  
    69    30    70 1   
    70    31    71 1   
    71    34    35 ar  
    72    34    72 1   
    73    35    36 ar  
    74    36    37 ar  
    75    36    73 1   
    76    37    74 1   
    77    38    39 1   
    78    38    75 1   
    79    38    76 1   
    80    39    40 1   
    81    39    77 1   
    82    39    78 1   
    83    40    41 1   
    84    40    79 1   
    85    40    80 1   
    86    41    81 1   
    87    41    82 1   
    88    42    83 1   
    89    42    84 1   
    90    44    85 1   
    91    66    87 1   
    92    86    87 1   
    93    86    88 2   
@<TRIPOS>SUBSTRUCTURE
     1 63P         1 TEMP              0 ****  ****    0 ROOT
