@<TRIPOS>MOLECULE
63P
   88    93     1     0     0
SMALL
bcc


@<TRIPOS>ATOM
      1 C36         -4.1930    -0.0660     4.6140 cc         1 63P       0.298200
      2 C35         -3.5990    -0.4340     3.4050 cc         1 63P      -0.281300
      3 C33         -4.6120    -1.6290     1.3440 c          1 63P       0.707700
      4 C37         -7.0710    -1.4180     3.1750 c3         1 63P       0.040600
      5 C34         -4.6250    -1.0160     2.6840 cd         1 63P      -0.177900
      6 C32          4.3100    -0.0400    -0.1580 c          1 63P       0.676100
      7 N3           4.9370    -1.1910     0.1700 ns         1 63P      -0.571900
      8 C4           4.2640    -3.4830    -0.4320 c3         1 63P      -0.041100
      9 N2          -1.2550    -2.0100    -0.3550 ns         1 63P      -0.463100
     10 C7           0.7500    -2.6780    -1.6410 ca         1 63P      -0.160000
     11 C6           2.0870    -3.0440    -1.6160 ca         1 63P      -0.092500
     12 C9           0.8190    -2.4110     0.7450 ca         1 63P      -0.160000
     13 C13         -4.2890    -0.4310    -1.7470 c3         1 63P      -0.046100
     14 C20          0.0510     2.9830    -1.3440 ca         1 63P       0.128100
     15 C21          0.1080     2.2560    -0.1630 ca         1 63P      -0.173500
     16 C8           0.1010    -2.3580    -0.4490 ca         1 63P       0.075600
     17 N5          -5.4760    -0.3870     4.6290 nd         1 63P      -0.507800
     18 C18         -4.2210     3.0400    -0.1390 ca         1 63P      -0.115000
     19 C16         -2.2820     2.7710    -1.5060 ca         1 63P       0.107100
     20 C19         -4.6380     1.7670    -0.5020 ca         1 63P       0.017400
     21 C26          3.8300     2.3370     0.6830 c5         1 63P       0.017300
     22 C1           8.5320    -3.5790    -1.9070 c3         1 63P       0.093300
     23 C3           5.1650    -2.2730    -0.7470 c3         1 63P       0.034700
     24 C5           2.8120    -3.1100    -0.4320 ca         1 63P      -0.104300
     25 C10          2.1520    -2.7820     0.7490 ca         1 63P      -0.092500
     26 C11         -2.1300    -1.7310    -1.3410 c          1 63P       0.668100
     27 O2          -1.8610    -1.7190    -2.5280 o          1 63P      -0.583100
     28 C12         -3.5680    -1.4730    -0.8730 c3         1 63P       0.015700
     29 C14         -3.9010     0.9750    -1.3840 ca         1 63P      -0.078300
     30 C15         -2.7130     1.5100    -1.8810 ca         1 63P      -0.127000
     31 C17         -3.0320     3.5450    -0.6340 ca         1 63P      -0.127000
     32 CL1         -6.1280     1.1860     0.1770 cl         1 63P      -0.112400
     33 O3          -1.1110     3.2590    -2.0150 os         1 63P      -0.251200
     34 C22          1.3350     2.0510     0.4520 ca         1 63P      -0.086000
     35 C23          2.5260     2.5380    -0.0780 ca         1 63P      -0.070300
     36 C24          2.4360     3.2510    -1.2700 ca         1 63P      -0.086000
     37 C25          1.2220     3.4790    -1.9000 ca         1 63P      -0.173500
     38 C27          3.7810     3.1890     1.9690 c5         1 63P      -0.075400
     39 C28          4.0290     4.6150     1.4870 c5         1 63P      -0.077900
     40 C29          5.0230     4.4650     0.3170 c5         1 63P      -0.077900
     41 C30          5.0530     2.9600    -0.0140 c5         1 63P      -0.075400
     42 C31          4.0600     0.8670     1.0290 c3         1 63P      -0.146400
     43 O4           3.9740     0.2330    -1.2960 o          1 63P      -0.588100
     44 N4          -3.6370    -1.1380     0.5310 ns         1 63P      -0.566900
     45 O5          -5.3840    -2.5070     1.0110 o          1 63P      -0.579100
     46 N6          -5.7260    -0.9650     3.4670 na         1 63P       0.158400
     47 H36         -3.7400     0.4160     5.4660 h4         1 63P       0.043100
     48 H35         -2.5660    -0.3170     3.1200 ha         1 63P       0.161000
     49 H37         -7.1350    -2.5020     3.2080 h1         1 63P       0.067367
     50 H38         -7.7260    -0.9960     3.9300 h1         1 63P       0.067367
     51 H39         -7.3890    -1.0710     2.1950 h1         1 63P       0.067367
     52 H33          5.2020    -1.3410     1.1320 hn         1 63P       0.325500
     53 H7           4.4580    -4.2630    -1.1710 hc         1 63P       0.059200
     54 H8           4.5470    -3.8900     0.5430 hc         1 63P       0.059200
     55 H13         -1.6370    -2.0110     0.5800 hn         1 63P       0.331500
     56 H10          0.2270    -2.6520    -2.5830 ha         1 63P       0.146000
     57 H9           2.5690    -3.2960    -2.5530 ha         1 63P       0.129000
     58 H11          0.3320    -2.1690     1.6820 ha         1 63P       0.146000
     59 H15         -4.0570    -0.6230    -2.7940 hc         1 63P       0.083200
     60 H14         -5.3610    -0.5780    -1.6320 hc         1 63P       0.083200
     61 H19         -0.7840     1.8490     0.2940 ha         1 63P       0.138500
     62 H18         -4.8160     3.6330     0.5410 ha         1 63P       0.153000
     63 H4           8.6670    -4.4520    -1.2700 h1         1 63P       0.042367
     64 H3           8.7260    -3.8700    -2.9350 h1         1 63P       0.042367
     65 H5           9.2670    -2.8270    -1.6170 h1         1 63P       0.042367
     66 H6           6.6640    -2.9500    -2.6750 hn         1 63P       0.320500
     67 H1           4.9310    -1.9100    -1.7490 h1         1 63P       0.090700
     68 H12          2.6820    -2.8270     1.6920 ha         1 63P       0.129000
     69 H2          -4.0840    -2.4280    -1.0050 h1         1 63P       0.109700
     70 H16         -2.1170     0.9300    -2.5730 ha         1 63P       0.170000
     71 H17         -2.6970     4.5320    -0.3440 ha         1 63P       0.155000
     72 H20          1.3400     1.4900     1.3790 ha         1 63P       0.128500
     73 H21          3.3240     3.6500    -1.7390 ha         1 63P       0.128500
     74 H22          1.1840     4.0440    -2.8230 ha         1 63P       0.138500
     75 H24          2.8500     3.0740     2.5270 hc         1 63P       0.046950
     76 H23          4.5940     2.8760     2.6320 hc         1 63P       0.046950
     77 H26          3.0960     5.0650     1.1420 hc         1 63P       0.043200
     78 H25          4.4120     5.2550     2.2830 hc         1 63P       0.043200
     79 H28          4.7100     5.0610    -0.5410 hc         1 63P       0.043200
     80 H27          6.0190     4.8150     0.5930 hc         1 63P       0.043200
     81 H29          5.9490     2.5080     0.4190 hc         1 63P       0.046950
     82 H30          5.0960     2.7550    -1.0830 hc         1 63P       0.046950
     83 H31          3.2040     0.4570     1.5750 hc         1 63P       0.060200
     84 H32          4.9060     0.7930     1.7200 hc         1 63P       0.060200
     85 H34         -3.2480    -0.2440     0.7940 hn         1 63P       0.320500
     86 C2           6.6240    -2.7110    -0.6630 c          1 63P       0.651100
     87 N1           7.1830    -3.0690    -1.8220 ns         1 63P      -0.567900
     88 O1           7.2050    -2.7720     0.4120 o          1 63P      -0.608100
@<TRIPOS>BOND
     1     1     2 1   
     2     1    17 2   
     3     1    47 1   
     4     2     5 2   
     5     2    48 1   
     6     3     5 1   
     7     3    44 1   
     8     3    45 2   
     9     4    46 1   
    10     4    49 1   
    11     4    50 1   
    12     4    51 1   
    13     5    46 1   
    14     6     7 1   
    15     6    42 1   
    16     6    43 2   
    17     7    23 1   
    18     7    52 1   
    19     8    23 1   
    20     8    24 1   
    21     8    53 1   
    22     8    54 1   
    23     9    16 1   
    24     9    26 1   
    25     9    55 1   
    26    10    11 ar  
    27    10    16 ar  
    28    10    56 1   
    29    11    24 ar  
    30    11    57 1   
    31    12    16 ar  
    32    12    25 ar  
    33    12    58 1   
    34    13    28 1   
    35    13    29 1   
    36    13    59 1   
    37    13    60 1   
    38    14    15 ar  
    39    14    33 1   
    40    14    37 ar  
    41    15    34 ar  
    42    15    61 1   
    43    17    46 1   
    44    18    20 ar  
    45    18    31 ar  
    46    18    62 1   
    47    19    30 ar  
    48    19    31 ar  
    49    19    33 1   
    50    20    29 ar  
    51    20    32 1   
    52    21    35 1   
    53    21    38 1   
    54    21    41 1   
    55    21    42 1   
    56    22    63 1   
    57    22    64 1   
    58    22    65 1   
    59    22    87 1   
    60    23    67 1   
    61    23    86 1   
    62    24    25 ar  
    63    25    68 1   
    64    26    27 2   
    65    26    28 1   
    66    28    44 1   
    67    28    69 1   
    68    29    30 ar  
    69    30    70 1   
    70    31    71 1   
    71    34    35 ar  
    72    34    72 1   
    73    35    36 ar  
    74    36    37 ar  
    75    36    73 1   
    76    37    74 1   
    77    38    39 1   
    78    38    75 1   
    79    38    76 1   
    80    39    40 1   
    81    39    77 1   
    82    39    78 1   
    83    40    41 1   
    84    40    79 1   
    85    40    80 1   
    86    41    81 1   
    87    41    82 1   
    88    42    83 1   
    89    42    84 1   
    90    44    85 1   
    91    66    87 1   
    92    86    87 1   
    93    86    88 2   
@<TRIPOS>SUBSTRUCTURE
     1 63P         1 TEMP              0 ****  ****    0 ROOT
