@<TRIPOS>MOLECULE
63Q
   77    81     1     0     0
SMALL
No Charge or Current Charge


@<TRIPOS>ATOM
      1 C33         72.6620   -49.8600   -43.8760 c3         1 63Q       0.074900
      2 C32         72.0120   -48.1210   -46.8690 cc         1 63Q       0.234900
      3 N3          82.5400   -39.7180   -46.9980 ns         1 63Q      -0.517900
      4 C4          80.7110   -39.0150   -45.4510 c3         1 63Q      -0.034100
      5 N2          78.3890   -44.2800   -44.8680 ns         1 63Q      -0.133000
      6 C7          78.4300   -42.0580   -46.0060 ca         1 63Q      -0.144000
      7 C6          79.0130   -40.7860   -46.1360 ca         1 63Q      -0.079500
      8 C9          80.0750   -42.6350   -44.3200 ca         1 63Q      -0.144000
      9 C13         78.1750   -47.4350   -45.2110 c3         1 63Q      -0.038100
     10 C20         82.7760   -45.4410   -45.8450 cp         1 63Q      -0.048000
     11 C21         84.1470   -45.7910   -45.8100 ca         1 63Q      -0.092000
     12 C8          78.9520   -42.9940   -45.0880 ca         1 63Q      -0.020000
     13 N5          71.6320   -49.0040   -45.9690 nd         1 63Q      -0.509800
     14 C18         81.1260   -46.9910   -42.7650 ca         1 63Q      -0.104000
     15 C16         81.7830   -46.1120   -44.9560 cp         1 63Q      -0.017000
     16 C19         79.8630   -47.3400   -43.2680 ca         1 63Q       0.118000
     17 C26         82.8020   -42.7220   -48.5790 c3         1 63Q      -0.021100
     18 C1          84.0110   -35.7970   -47.1500 c3         1 63Q       0.097300
     19 N1          83.4390   -37.1260   -46.9270 ns         1 63Q      -0.497900
     20 O1          82.6090   -36.7280   -44.8530 o          1 63Q      -0.608100
     21 C3          82.2300   -38.9720   -45.7500 c3         1 63Q       0.034700
     22 C5          80.1270   -40.4250   -45.3550 ca         1 63Q      -0.112300
     23 C10         80.6580   -41.3630   -44.4490 ca         1 63Q      -0.079500
     24 C11         77.3870   -44.9920   -45.5170 c          1 63Q       0.593100
     25 O2          76.7760   -44.5760   -46.4990 o          1 63Q      -0.585100
     26 C12         77.0780   -46.3830   -44.8850 c3         1 63Q       0.041700
     27 C14         79.5440   -47.0900   -44.6230 ca         1 63Q      -0.090300
     28 C15         80.5110   -46.4860   -45.4510 ca         1 63Q      -0.086000
     29 C17         82.0790   -46.3840   -43.6000 ca         1 63Q      -0.088000
     30 Cl1         78.6980   -48.0790   -42.1700 cl         1 63Q      -0.209000
     31 C22         85.0700   -45.1720   -46.6690 ca         1 63Q      -0.106000
     32 C23         84.6410   -44.1850   -47.5710 ca         1 63Q      -0.082000
     33 C24         83.2860   -43.8010   -47.6120 ca         1 63Q      -0.087300
     34 C25         82.3660   -44.4360   -46.7550 ca         1 63Q      -0.086000
     35 C27         83.5690   -41.3810   -48.4790 c3         1 63Q      -0.156400
     36 C28         83.4530   -40.7460   -47.0900 c          1 63Q       0.591100
     37 O3          84.1580   -41.0760   -46.1480 o          1 63Q      -0.586100
     38 N4          75.7550   -46.8590   -45.3520 ns         1 63Q      -0.481900
     39 O4          75.3170   -48.3370   -43.6750 o          1 63Q      -0.604100
     40 C30         73.7040   -48.0930   -45.4280 cd         1 63Q      -0.212600
     41 C31         73.2540   -47.5380   -46.5960 cc         1 63Q      -0.198000
     42 N6          72.6890   -48.9910   -45.0640 na         1 63Q       0.166800
     43 H31         71.7390   -50.4500   -43.8630 h1         1 63Q       0.067700
     44 H33         73.5240   -50.5370   -43.9010 h1         1 63Q       0.067700
     45 H32         72.7090   -49.2430   -42.9720 h1         1 63Q       0.067700
     46 H30         71.3650   -47.9220   -47.7130 h4         1 63Q       0.041100
     47 H27         81.9740   -39.5400   -47.8210 hn         1 63Q       0.315500
     48 H7          80.5210   -38.4880   -44.5080 hc         1 63Q       0.065200
     49 H6          80.1880   -38.4370   -46.2250 hc         1 63Q       0.065200
     50 H12         78.8060   -44.7750   -44.0900 hn         1 63Q       0.157000
     51 H9          77.5590   -42.2870   -46.6130 ha         1 63Q       0.132000
     52 H8          78.5830   -40.0730   -46.8370 ha         1 63Q       0.114500
     53 H10         80.4950   -43.3420   -43.6070 ha         1 63Q       0.132000
     54 H15         77.8550   -48.4180   -44.8450 hc         1 63Q       0.071200
     55 H14         78.2450   -47.5440   -46.3010 hc         1 63Q       0.071200
     56 H19         84.4920   -46.5630   -45.1260 ha         1 63Q       0.115000
     57 H18         81.3650   -47.1850   -41.7230 ha         1 63Q       0.135000
     58 H23         81.7340   -42.5210   -48.4230 hc         1 63Q       0.052700
     59 H24         82.8890   -43.0970   -49.6060 hc         1 63Q       0.052700
     60 H3          84.4850   -35.7630   -48.1400 h1         1 63Q       0.042033
     61 H4          83.2180   -35.0400   -47.1030 h1         1 63Q       0.042033
     62 H2          84.7650   -35.5850   -46.3810 h1         1 63Q       0.042033
     63 H5          83.5460   -37.8320   -47.6460 hn         1 63Q       0.316500
     64 H1          82.7550   -39.4500   -44.9140 h1         1 63Q       0.101700
     65 H11         81.5120   -41.1040   -43.8280 ha         1 63Q       0.114500
     66 H13         77.0290   -46.2400   -43.7980 h1         1 63Q       0.087700
     67 H16         80.2750   -46.2950   -46.4950 ha         1 63Q       0.127000
     68 H17         83.0460   -46.1040   -43.1890 ha         1 63Q       0.128000
     69 H20         86.1180   -45.4620   -46.6390 ha         1 63Q       0.118000
     70 H21         85.3650   -43.7210   -48.2360 ha         1 63Q       0.117000
     71 H22         81.3200   -44.1400   -46.7830 ha         1 63Q       0.118000
     72 H26         84.6270   -41.5500   -48.7090 hc         1 63Q       0.065200
     73 H25         83.1340   -40.7070   -49.2270 hc         1 63Q       0.065200
     74 H28         75.3750   -46.4590   -46.2020 hn         1 63Q       0.330500
     75 H29         73.7320   -46.7900   -47.2220 ha         1 63Q       0.141000
     76 C29         74.9780   -47.8020   -44.7200 c          1 63Q       0.641700
     77 C2          82.7700   -37.5090   -45.7820 c          1 63Q       0.585100
@<TRIPOS>BOND
     1     1    42 1   
     2     1    43 1   
     3     1    44 1   
     4     1    45 1   
     5     2    13 2   
     6     2    41 1   
     7     2    46 1   
     8     3    21 1   
     9     3    36 1   
    10     3    47 1   
    11     4    21 1   
    12     4    22 1   
    13     4    48 1   
    14     4    49 1   
    15     5    12 1   
    16     5    24 1   
    17     5    50 1   
    18     6     7 ar  
    19     6    12 ar  
    20     6    51 1   
    21     7    22 ar  
    22     7    52 1   
    23     8    12 ar  
    24     8    23 ar  
    25     8    53 1   
    26     9    26 1   
    27     9    27 1   
    28     9    54 1   
    29     9    55 1   
    30    10    11 ar  
    31    10    15 1   
    32    10    34 ar  
    33    11    31 ar  
    34    11    56 1   
    35    13    42 1   
    36    14    16 ar  
    37    14    29 ar  
    38    14    57 1   
    39    15    28 ar  
    40    15    29 ar  
    41    16    27 ar  
    42    16    30 1   
    43    17    33 1   
    44    17    35 1   
    45    17    58 1   
    46    17    59 1   
    47    18    19 1   
    48    18    60 1   
    49    18    61 1   
    50    18    62 1   
    51    19    63 1   
    52    19    77 1   
    53    20    77 2   
    54    21    64 1   
    55    21    77 1   
    56    22    23 ar  
    57    23    65 1   
    58    24    25 2   
    59    24    26 1   
    60    26    38 1   
    61    26    66 1   
    62    27    28 ar  
    63    28    67 1   
    64    29    68 1   
    65    31    32 ar  
    66    31    69 1   
    67    32    33 ar  
    68    32    70 1   
    69    33    34 ar  
    70    34    71 1   
    71    35    36 1   
    72    35    72 1   
    73    35    73 1   
    74    36    37 2   
    75    38    74 1   
    76    38    76 1   
    77    39    76 2   
    78    40    41 2   
    79    40    42 1   
    80    40    76 1   
    81    41    75 1   
@<TRIPOS>SUBSTRUCTURE
     1 63Q         1 TEMP              0 ****  ****    0 ROOT
