@<TRIPOS>MOLECULE
63Q
   77    81     1     0     0
SMALL
abcg2


@<TRIPOS>ATOM
      1 C33         72.1930   -46.0890   -44.7520 c3         1 63Q       0.074900
      2 C32         72.4570   -49.1850   -46.4000 cc         1 63Q       0.234900
      3 N3          82.1220   -40.0360   -46.8820 ns         1 63Q      -0.517900
      4 C4          80.5850   -39.5170   -45.0490 c3         1 63Q      -0.034100
      5 N2          78.3740   -44.7660   -44.5190 ns         1 63Q      -0.133000
      6 C7          78.5250   -42.6460   -45.7780 ca         1 63Q      -0.144000
      7 C6          79.0800   -41.3730   -45.8740 ca         1 63Q      -0.079500
      8 C9          79.8530   -43.0310   -43.8040 ca         1 63Q      -0.144000
      9 C13         78.7060   -47.8680   -45.3670 c3         1 63Q      -0.038100
     10 C20         82.9070   -45.2630   -46.1450 cp         1 63Q      -0.048000
     11 C21         84.2880   -45.4680   -46.2090 ca         1 63Q      -0.092000
     12 C8          78.9050   -43.4810   -44.7280 ca         1 63Q      -0.020000
     13 N5          71.7590   -48.1460   -45.9340 nd         1 63Q      -0.509800
     14 C18         81.7150   -47.1790   -43.1140 ca         1 63Q      -0.104000
     15 C16         82.0710   -46.0820   -45.2400 cp         1 63Q      -0.017000
     16 C19         80.5000   -47.6670   -43.5750 ca         1 63Q       0.118000
     17 C26         82.4460   -42.5190   -48.7570 c3         1 63Q      -0.021100
     18 C1          83.2430   -36.0040   -46.4940 c3         1 63Q       0.097300
     19 N1          82.7400   -37.3660   -46.4990 ns         1 63Q      -0.497900
     20 O1          82.9100   -37.6710   -44.2630 o          1 63Q      -0.608100
     21 C3          82.0430   -39.5080   -45.5370 c3         1 63Q       0.034700
     22 C5          80.0070   -40.9040   -44.9490 ca         1 63Q      -0.112300
     23 C10         80.3920   -41.7610   -43.9160 ca         1 63Q      -0.079500
     24 C11         77.6950   -45.5630   -45.3800 c          1 63Q       0.593100
     25 O2          77.2990   -45.2230   -46.4860 o          1 63Q      -0.585100
     26 C12         77.5280   -47.0040   -44.8690 c3         1 63Q       0.041700
     27 C14         80.0370   -47.3860   -44.8610 ca         1 63Q      -0.090300
     28 C15         80.8450   -46.5880   -45.6700 ca         1 63Q      -0.086000
     29 C17         82.4960   -46.3920   -43.9450 ca         1 63Q      -0.088000
     30 CL1         79.5370   -48.6510   -42.4880 cl         1 63Q      -0.209000
     31 C22         85.0630   -44.7330   -47.0980 ca         1 63Q      -0.106000
     32 C23         84.4760   -43.7850   -47.9250 ca         1 63Q      -0.082000
     33 C24         83.1010   -43.5450   -47.8640 ca         1 63Q      -0.087300
     34 C25         82.3340   -44.2880   -46.9690 ca         1 63Q      -0.086000
     35 C27         83.1470   -41.1470   -48.7800 c3         1 63Q      -0.156400
     36 C28         83.2700   -40.5280   -47.4040 c          1 63Q       0.591100
     37 O3          84.3340   -40.4770   -46.7880 o          1 63Q      -0.586100
     38 N4          76.2910   -47.5850   -45.3330 ns         1 63Q      -0.481900
     39 O4          75.0050   -46.2390   -44.0490 o          1 63Q      -0.604100
     40 C30         73.9180   -47.8240   -45.4540 cd         1 63Q      -0.212600
     41 C31         73.8210   -49.0350   -46.1290 cc         1 63Q      -0.198000
     42 N6          72.6530   -47.3300   -45.3590 na         1 63Q       0.166800
     43 H31         71.1490   -45.9720   -45.0280 h1         1 63Q       0.067700
     44 H33         72.2910   -46.1360   -43.6700 h1         1 63Q       0.067700
     45 H32         72.7750   -45.2510   -45.1260 h1         1 63Q       0.067700
     46 H30         71.9530   -49.9920   -46.9060 h4         1 63Q       0.041100
     47 H27         81.2730   -40.1100   -47.4210 hn         1 63Q       0.315500
     48 H7          80.5670   -39.0310   -44.0740 hc         1 63Q       0.065200
     49 H6          79.9830   -38.9090   -45.7290 hc         1 63Q       0.065200
     50 H12         78.6430   -45.1900   -43.6440 hn         1 63Q       0.157000
     51 H9          77.7990   -42.9810   -46.5000 ha         1 63Q       0.132000
     52 H8          78.7660   -40.7280   -46.6870 ha         1 63Q       0.114500
     53 H10         80.1600   -43.6840   -42.9960 ha         1 63Q       0.132000
     54 H15         78.5220   -48.8930   -45.0450 hc         1 63Q       0.071200
     55 H14         78.7070   -47.8530   -46.4590 hc         1 63Q       0.071200
     56 H19         84.7490   -46.2220   -45.5850 ha         1 63Q       0.115000
     57 H18         82.0420   -47.4110   -42.1090 ha         1 63Q       0.135000
     58 H23         81.4050   -42.3940   -48.4540 hc         1 63Q       0.052700
     59 H24         82.4260   -42.8920   -49.7850 hc         1 63Q       0.052700
     60 H3          83.2720   -35.6450   -47.5200 h1         1 63Q       0.042033
     61 H4          82.5970   -35.3510   -45.9040 h1         1 63Q       0.042033
     62 H2          84.2490   -35.9640   -46.0730 h1         1 63Q       0.042033
     63 H5          82.4880   -37.7900   -47.3770 hn         1 63Q       0.316500
     64 H1          82.6450   -40.1380   -44.8810 h1         1 63Q       0.101700
     65 H11         81.1190   -41.4280   -43.1840 ha         1 63Q       0.114500
     66 H13         77.5190   -46.9980   -43.7780 h1         1 63Q       0.087700
     67 H16         80.5020   -46.3670   -46.6740 ha         1 63Q       0.127000
     68 H17         83.4370   -46.0050   -43.5760 ha         1 63Q       0.128000
     69 H20         86.1300   -44.9100   -47.1520 ha         1 63Q       0.118000
     70 H21         85.0930   -43.2250   -48.6160 ha         1 63Q       0.117000
     71 H22         81.2690   -44.0980   -46.9040 ha         1 63Q       0.118000
     72 H26         84.1530   -41.2360   -49.1860 hc         1 63Q       0.065200
     73 H25         82.5810   -40.4770   -49.4310 hc         1 63Q       0.065200
     74 H28         76.3210   -48.2130   -46.1200 hn         1 63Q       0.330500
     75 H29         74.6200   -49.7150   -46.3700 ha         1 63Q       0.141000
     76 C29         75.0960   -47.1380   -44.8860 c          1 63Q       0.641700
     77 C2          82.6190   -38.0940   -45.3840 c          1 63Q       0.585100
@<TRIPOS>BOND
     1     1    42 1   
     2     1    43 1   
     3     1    44 1   
     4     1    45 1   
     5     2    13 2   
     6     2    41 1   
     7     2    46 1   
     8     3    21 1   
     9     3    36 1   
    10     3    47 1   
    11     4    21 1   
    12     4    22 1   
    13     4    48 1   
    14     4    49 1   
    15     5    12 1   
    16     5    24 1   
    17     5    50 1   
    18     6     7 ar  
    19     6    12 ar  
    20     6    51 1   
    21     7    22 ar  
    22     7    52 1   
    23     8    12 ar  
    24     8    23 ar  
    25     8    53 1   
    26     9    26 1   
    27     9    27 1   
    28     9    54 1   
    29     9    55 1   
    30    10    11 ar  
    31    10    15 1   
    32    10    34 ar  
    33    11    31 ar  
    34    11    56 1   
    35    13    42 1   
    36    14    16 ar  
    37    14    29 ar  
    38    14    57 1   
    39    15    28 ar  
    40    15    29 ar  
    41    16    27 ar  
    42    16    30 1   
    43    17    33 1   
    44    17    35 1   
    45    17    58 1   
    46    17    59 1   
    47    18    19 1   
    48    18    60 1   
    49    18    61 1   
    50    18    62 1   
    51    19    63 1   
    52    19    77 1   
    53    20    77 2   
    54    21    64 1   
    55    21    77 1   
    56    22    23 ar  
    57    23    65 1   
    58    24    25 2   
    59    24    26 1   
    60    26    38 1   
    61    26    66 1   
    62    27    28 ar  
    63    28    67 1   
    64    29    68 1   
    65    31    32 ar  
    66    31    69 1   
    67    32    33 ar  
    68    32    70 1   
    69    33    34 ar  
    70    34    71 1   
    71    35    36 1   
    72    35    72 1   
    73    35    73 1   
    74    36    37 2   
    75    38    74 1   
    76    38    76 1   
    77    39    76 2   
    78    40    41 2   
    79    40    42 1   
    80    40    76 1   
    81    41    75 1   
@<TRIPOS>SUBSTRUCTURE
     1 63Q         1 TEMP              0 ****  ****    0 ROOT
