@<TRIPOS>MOLECULE
63U
   42    43     1     0     0
SMALL
abcg2


@<TRIPOS>ATOM
      1 OAI         -2.9980     0.6450    -2.6720 o          1 63U      -0.708000
      2 CAH         -3.2650     1.3620    -1.6860 c          1 63U       0.722200
      3 OAJ         -3.7670     2.4980    -1.7110 o          1 63U      -0.708000
      4 CAD         -2.9110     0.7260    -0.3400 ce         1 63U       0.049800
      5 NAC         -1.7820    -0.0910    -0.4660 nu         1 63U      -0.789200
      6 CAE         -3.6030     0.8540     0.8080 c2         1 63U      -0.238400
      7 CAG         -4.7530     1.7960     1.0190 c3         1 63U      -0.019900
      8 CAF         -3.3460     0.0120     2.0310 c6         1 63U       0.150800
      9 SAA         -2.5090    -1.5610     1.7000 ss         1 63U      -0.595000
     10 CB          -1.2260    -0.7250     0.6750 c6         1 63U       0.379500
     11 CA          -0.1020    -1.6850     0.2810 c3         1 63U      -0.003300
     12 C           -0.6270    -2.8520    -0.5360 c          1 63U       0.560900
     13 O           -0.2770    -3.0920    -1.6600 o          1 63U      -0.498100
     14 N            0.9220    -0.9550    -0.4100 ns         1 63U      -0.481900
     15 CAO          2.1860    -1.4010    -0.5030 c          1 63U       0.618100
     16 OAR          2.5640    -2.4440     0.0020 o          1 63U      -0.616100
     17 CAP          3.1390    -0.4530    -1.2280 c3         1 63U       0.131800
     18 NAS          4.2210    -1.2170    -1.8070 n8         1 63U      -0.977200
     19 CAQ          3.5330     0.6380    -0.2440 ca         1 63U      -0.129300
     20 CAT          3.0180     1.9230    -0.3790 ca         1 63U      -0.096000
     21 CAU          3.3630     2.9240     0.5210 ca         1 63U      -0.111500
     22 CAV          4.2300     2.6470     1.5680 ca         1 63U      -0.111000
     23 CAW          4.7470     1.3650     1.7110 ca         1 63U      -0.111500
     24 CAX          4.4020     0.3680     0.8110 ca         1 63U      -0.096000
     25 H3          -1.8170    -0.6300    -1.3220 hn         1 63U       0.502000
     26 H6          -5.6950     1.2450     1.1020 hc         1 63U       0.031367
     27 H7          -4.6320     2.3370     1.9620 hc         1 63U       0.031367
     28 H8          -4.8490     2.5230     0.2210 hc         1 63U       0.031367
     29 H9          -2.7840     0.5620     2.7920 h1         1 63U       0.051700
     30 H10         -4.3020    -0.2530     2.4890 h1         1 63U       0.051700
     31 H11         -0.7930     0.0330     1.3340 h2         1 63U       0.077700
     32 H12          0.3000    -2.1090     1.2080 h1         1 63U       0.091700
     33 H13         -1.3620    -3.4880    -0.0130 h4         1 63U       0.006200
     34 H14          0.6480    -0.1260    -0.9140 hn         1 63U       0.345500
     35 H15          2.5910     0.0220    -2.0470 h1         1 63U       0.083700
     36 H16          4.8840    -0.5850    -2.2360 hn         1 63U       0.403500
     37 H17          4.7240    -1.7250    -1.0910 hn         1 63U       0.403500
     38 H19          2.3460     2.1470    -1.1990 ha         1 63U       0.120000
     39 H20          2.9570     3.9200     0.3990 ha         1 63U       0.111000
     40 H21          4.5040     3.4250     2.2690 ha         1 63U       0.107000
     41 H22          5.4220     1.1420     2.5280 ha         1 63U       0.111000
     42 H23          4.8120    -0.6270     0.9410 ha         1 63U       0.120000
@<TRIPOS>BOND
     1     1     2 1   
     2     2     3 1   
     3     2     4 1   
     4     4     5 1   
     5     4     6 2   
     6     5    10 1   
     7     5    25 1   
     8     6     7 1   
     9     6     8 1   
    10     7    26 1   
    11     7    27 1   
    12     7    28 1   
    13     8     9 1   
    14     8    29 1   
    15     8    30 1   
    16     9    10 1   
    17    10    11 1   
    18    10    31 1   
    19    11    12 1   
    20    11    14 1   
    21    11    32 1   
    22    12    13 2   
    23    12    33 1   
    24    14    15 1   
    25    14    34 1   
    26    15    16 2   
    27    15    17 1   
    28    17    18 1   
    29    17    19 1   
    30    17    35 1   
    31    18    36 1   
    32    18    37 1   
    33    19    20 ar  
    34    19    24 ar  
    35    20    21 ar  
    36    20    38 1   
    37    21    22 ar  
    38    21    39 1   
    39    22    23 ar  
    40    22    40 1   
    41    23    24 ar  
    42    23    41 1   
    43    24    42 1   
@<TRIPOS>SUBSTRUCTURE
     1 63U         1 TEMP              0 ****  ****    0 ROOT
