@<TRIPOS>MOLECULE
63U
   42    43     1     0     0
SMALL
No Charge or Current Charge


@<TRIPOS>ATOM
      1 OAI         -1.2520     2.6410    -0.7940 o          1 63U      -0.708000
      2 CAH         -2.1210     2.4390     0.0500 c          1 63U       0.722200
      3 OAJ         -2.8120     3.3510     0.4880 o          1 63U      -0.708000
      4 CAD         -2.3240     0.9730     0.5380 ce         1 63U       0.049800
      5 NAC         -1.4340     0.0430    -0.0890 nu         1 63U      -0.789200
      6 CAE         -3.2260     0.5800     1.4920 c2         1 63U      -0.238400
      7 CAG         -4.1860     1.4940     2.2460 c3         1 63U      -0.019900
      8 CAF         -3.3630    -0.8790     1.9110 c6         1 63U       0.150800
      9 SAA         -2.7940    -2.1150     0.6790 ss         1 63U      -0.595000
     10 CB          -1.1770    -1.3230     0.3580 c6         1 63U       0.379500
     11 CA          -0.3660    -2.1280    -0.7000 c3         1 63U      -0.003300
     12 C           -1.1160    -2.2360    -2.0450 c          1 63U       0.560900
     13 O           -0.6720    -1.8060    -3.1070 o          1 63U      -0.498100
     14 N            1.0190    -1.6150    -0.9070 ns         1 63U      -0.481900
     15 CAO          2.0110    -1.6100     0.0550 c          1 63U       0.618100
     16 OAR          1.8120    -2.0590     1.1800 o          1 63U      -0.616100
     17 CAP          3.3840    -0.9840    -0.4010 c3         1 63U       0.131800
     18 NAS          4.6080    -1.4310     0.3430 n8         1 63U      -0.977200
     19 CAQ          3.3190     0.5420    -0.3810 ca         1 63U      -0.129300
     20 CAT          3.6460     1.2800    -1.5370 ca         1 63U      -0.096000
     21 CAU          3.5830     2.6850    -1.5260 ca         1 63U      -0.111500
     22 CAV          3.1920     3.3630    -0.3590 ca         1 63U      -0.111000
     23 CAW          2.8660     2.6350     0.7970 ca         1 63U      -0.111500
     24 CAX          2.9300     1.2310     0.7880 ca         1 63U      -0.096000
     25 H3          -0.7500     0.4760    -0.7150 hn         1 63U       0.502000
     26 H6          -4.9120     1.9520     1.5640 hc         1 63U       0.031367
     27 H7          -4.7580     0.9570     3.0130 hc         1 63U       0.031367
     28 H8          -3.6460     2.2960     2.7630 hc         1 63U       0.031367
     29 H9          -2.7870    -1.0430     2.8330 h1         1 63U       0.051700
     30 H10         -4.4140    -1.1150     2.1370 h1         1 63U       0.051700
     31 H11         -0.6260    -1.3230     1.3130 h2         1 63U       0.077700
     32 H12         -0.2870    -3.1540    -0.3200 h1         1 63U       0.091700
     33 H13         -2.0970    -2.7570    -2.0110 h4         1 63U       0.006200
     34 H14          1.2620    -1.2320    -1.8160 hn         1 63U       0.345500
     35 H15          3.5140    -1.3040    -1.4460 h1         1 63U       0.083700
     36 H16          5.4110    -0.8790     0.0180 hn         1 63U       0.403500
     37 H17          4.5090    -1.1540     1.3270 hn         1 63U       0.403500
     38 H19          3.9520     0.7690    -2.4480 ha         1 63U       0.120000
     39 H20          3.8360     3.2470    -2.4220 ha         1 63U       0.111000
     40 H21          3.1420     4.4490    -0.3520 ha         1 63U       0.107000
     41 H22          2.5630     3.1590     1.7010 ha         1 63U       0.111000
     42 H23          2.6750     0.6810     1.6920 ha         1 63U       0.120000
@<TRIPOS>BOND
     1     1     2 1   
     2     2     3 1   
     3     2     4 1   
     4     4     5 1   
     5     4     6 2   
     6     5    10 1   
     7     5    25 1   
     8     6     7 1   
     9     6     8 1   
    10     7    26 1   
    11     7    27 1   
    12     7    28 1   
    13     8     9 1   
    14     8    29 1   
    15     8    30 1   
    16     9    10 1   
    17    10    11 1   
    18    10    31 1   
    19    11    12 1   
    20    11    14 1   
    21    11    32 1   
    22    12    13 2   
    23    12    33 1   
    24    14    15 1   
    25    14    34 1   
    26    15    16 2   
    27    15    17 1   
    28    17    18 1   
    29    17    19 1   
    30    17    35 1   
    31    18    36 1   
    32    18    37 1   
    33    19    20 ar  
    34    19    24 ar  
    35    20    21 ar  
    36    20    38 1   
    37    21    22 ar  
    38    21    39 1   
    39    22    23 ar  
    40    22    40 1   
    41    23    24 ar  
    42    23    41 1   
    43    24    42 1   
@<TRIPOS>SUBSTRUCTURE
     1 63U         1 TEMP              0 ****  ****    0 ROOT
