@<TRIPOS>MOLECULE
63V
   35    36     1     0     0
SMALL
abcg2


@<TRIPOS>ATOM
      1 OAU         -3.6100    -2.4700    -1.7420 o          1 63V      -0.692000
      2 CAK         -3.7940    -1.9520    -0.6300 c          1 63V       0.641700
      3 OAV         -4.2610    -2.4630     0.4010 o          1 63V      -0.692000
      4 CAD         -3.3880    -0.4870    -0.5060 ce         1 63V       0.454600
      5 NAC         -2.1390    -0.2610    -0.4080 n2         1 63V      -0.640900
      6 CAE         -4.4440     0.5480    -0.5570 ce         1 63V      -0.224800
      7 CAJ         -5.7330     0.2490    -0.3890 c2         1 63V      -0.252000
      8 CAF         -3.9910     1.9440    -0.8380 c6         1 63V       0.120800
      9 SAA         -2.6610     2.3760     0.3170 ss         1 63V      -0.539000
     10 CB          -1.5520     1.0330    -0.2420 c6         1 63V       0.290500
     11 CA          -0.3830     0.8880     0.7440 c3         1 63V       0.007700
     12 C           -0.8700     0.3680     2.0850 c          1 63V       0.574900
     13 O           -0.3700    -0.5650     2.6540 o          1 63V      -0.515100
     14 N            0.6080     0.0240     0.1730 ns         1 63V      -0.476900
     15 CAM          1.9020     0.0610     0.5430 c          1 63V       0.604100
     16 OAO          2.3700     0.9350     1.2510 o          1 63V      -0.611100
     17 CAN          2.7360    -1.0910     0.0060 c3         1 63V      -0.097100
     18 CAP          4.1770    -0.7440    -0.1330 cc         1 63V      -0.170300
     19 SAT          4.7240     0.2970    -1.3930 ss         1 63V       0.196000
     20 CAS          6.3500     0.2080    -0.8550 cc         1 63V      -0.253000
     21 CAR          6.4660    -0.5880     0.2420 cd         1 63V      -0.132000
     22 CAQ          5.2170    -1.1320     0.6550 cd         1 63V      -0.131000
     23 H6          -6.4940     1.0170    -0.4510 ha         1 63V       0.171000
     24 H7          -6.0710    -0.7530    -0.1680 ha         1 63V       0.171000
     25 H9          -3.6160     2.0480    -1.8590 h1         1 63V       0.063700
     26 H10         -4.7960     2.6640    -0.7020 h1         1 63V       0.063700
     27 H11         -1.1270     1.3430    -1.2040 h2         1 63V       0.075700
     28 H12          0.0540     1.8780     0.9190 h1         1 63V       0.088700
     29 H13         -1.7130     0.9270     2.5230 h4         1 63V       0.008200
     30 H14          0.2610    -0.7860    -0.3210 hn         1 63V       0.345500
     31 H15          2.6440    -1.9140     0.7220 hc         1 63V       0.076200
     32 H16          2.3210    -1.4580    -0.9350 hc         1 63V       0.076200
     33 H17          7.1280     0.7410    -1.3780 h4         1 63V       0.140000
     34 H18          7.4050    -0.7820     0.7400 ha         1 63V       0.124000
     35 H19          5.0960    -1.7880     1.5060 ha         1 63V       0.133000
@<TRIPOS>BOND
     1     1     2 1   
     2     2     3 1   
     3     2     4 1   
     4     4     5 2   
     5     4     6 1   
     6     5    10 1   
     7     6     7 2   
     8     6     8 1   
     9     7    23 1   
    10     7    24 1   
    11     8     9 1   
    12     8    25 1   
    13     8    26 1   
    14     9    10 1   
    15    10    11 1   
    16    10    27 1   
    17    11    12 1   
    18    11    14 1   
    19    11    28 1   
    20    12    13 2   
    21    12    29 1   
    22    14    15 1   
    23    14    30 1   
    24    15    16 2   
    25    15    17 1   
    26    17    18 1   
    27    17    31 1   
    28    17    32 1   
    29    18    19 1   
    30    18    22 2   
    31    19    20 1   
    32    20    21 2   
    33    20    33 1   
    34    21    22 1   
    35    21    34 1   
    36    22    35 1   
@<TRIPOS>SUBSTRUCTURE
     1 63V         1 TEMP              0 ****  ****    0 ROOT
