@<TRIPOS>MOLECULE
63V
   35    36     1     0     0
SMALL
No Charge or Current Charge


@<TRIPOS>ATOM
      1 OAU         -0.8560    -1.7930    -2.1110 o          1 63V      -0.692000
      2 CAK         -1.9590    -1.2640    -1.9720 c          1 63V       0.641700
      3 OAV         -2.9650    -1.7890    -2.4420 o          1 63V      -0.692000
      4 CAD         -2.0710     0.0990    -1.2220 ce         1 63V       0.454600
      5 NAC         -0.9780     0.7140    -0.8280 n2         1 63V      -0.640900
      6 CAE         -3.3780     0.7820    -0.9680 ce         1 63V      -0.224800
      7 CAJ         -4.5710     0.1610    -0.7850 c2         1 63V      -0.252000
      8 CAF         -3.2910     2.3030    -0.9080 c6         1 63V       0.120800
      9 SAA         -2.3150     2.7580     0.5810 ss         1 63V      -0.539000
     10 CB          -0.9480     1.5320     0.3990 c6         1 63V       0.290500
     11 CA          -0.8520     0.6300     1.6710 c3         1 63V       0.007700
     12 C           -2.1450    -0.1670     1.9420 c          1 63V       0.574900
     13 O           -2.2140    -1.3940     1.8960 o          1 63V      -0.515100
     14 N            0.3350    -0.2670     1.6650 ns         1 63V      -0.476900
     15 CAM          1.6400     0.1590     1.7760 c          1 63V       0.604100
     16 OAO          1.9240     1.3330     1.9710 o          1 63V      -0.611100
     17 CAN          2.7050    -0.9370     1.6350 c3         1 63V      -0.097100
     18 CAP          3.4230    -0.9290     0.3040 cc         1 63V      -0.170300
     19 SAT          2.5540    -0.6900    -1.2150 ss         1 63V       0.196000
     20 CAS          4.0520    -0.8220    -2.1320 cc         1 63V      -0.253000
     21 CAR          5.1200    -1.0390    -1.3000 cd         1 63V      -0.132000
     22 CAQ          4.7650    -1.1000     0.0740 cd         1 63V      -0.131000
     23 H6          -5.4870     0.7230    -0.5990 ha         1 63V       0.171000
     24 H7          -4.6770    -0.9230    -0.7990 ha         1 63V       0.171000
     25 H9          -2.7840     2.6960    -1.8010 h1         1 63V       0.063700
     26 H10         -4.2860     2.7650    -0.8400 h1         1 63V       0.063700
     27 H11         -0.0300     2.1390     0.3650 h2         1 63V       0.075700
     28 H12         -0.7480     1.3090     2.5260 h1         1 63V       0.088700
     29 H13         -3.0380     0.4420     2.2040 h4         1 63V       0.008200
     30 H14          0.1890    -1.2560     1.4910 hn         1 63V       0.345500
     31 H15          3.4420    -0.7900     2.4330 hc         1 63V       0.076200
     32 H16          2.2350    -1.9190     1.7600 hc         1 63V       0.076200
     33 H17          4.0300    -0.7330    -3.2100 h4         1 63V       0.140000
     34 H18          6.1390    -1.1530    -1.6570 ha         1 63V       0.124000
     35 H19          5.4880    -1.2650     0.8670 ha         1 63V       0.133000
@<TRIPOS>BOND
     1     1     2 1   
     2     2     3 1   
     3     2     4 1   
     4     4     5 2   
     5     4     6 1   
     6     5    10 1   
     7     6     7 2   
     8     6     8 1   
     9     7    23 1   
    10     7    24 1   
    11     8     9 1   
    12     8    25 1   
    13     8    26 1   
    14     9    10 1   
    15    10    11 1   
    16    10    27 1   
    17    11    12 1   
    18    11    14 1   
    19    11    28 1   
    20    12    13 2   
    21    12    29 1   
    22    14    15 1   
    23    14    30 1   
    24    15    16 2   
    25    15    17 1   
    26    17    18 1   
    27    17    31 1   
    28    17    32 1   
    29    18    19 1   
    30    18    22 2   
    31    19    20 1   
    32    20    21 2   
    33    20    33 1   
    34    21    22 1   
    35    21    34 1   
    36    22    35 1   
@<TRIPOS>SUBSTRUCTURE
     1 63V         1 TEMP              0 ****  ****    0 ROOT
