@<TRIPOS>MOLECULE
63W
   34    36     1     0     0
SMALL
abcg2


@<TRIPOS>ATOM
      1 C4           3.0930    -0.9870    -0.9950 ca         1 63W       0.227300
      2 C5           3.2270     0.1710    -0.2240 ca         1 63W      -0.315800
      3 C6           4.3370     0.1460     0.6710 ca         1 63W       0.479900
      4 N1           5.1360    -0.9130     0.7140 nb         1 63W      -0.357000
      5 N3           3.8790    -2.0500    -0.9640 nb         1 63W      -0.267000
      6 CAR          2.2110     1.1490    -0.4830 cc         1 63W       0.060600
      7 NAC          4.6300     1.1520     1.4980 nv         1 63W      -1.075900
      8 C2           4.8840    -1.9510    -0.0910 ca         1 63W       0.440900
      9 NAB          5.7440    -2.9830    -0.0280 nv         1 63W      -1.057900
     10 SAN          1.7270    -0.8810    -2.0470 ss         1 63W      -0.086900
     11 CAT          1.3420     0.7130    -1.4400 cd         1 63W      -0.066800
     12 SAM         -0.0210     1.5640    -2.1010 ss         1 63W      -0.003600
     13 CAP         -1.3820     0.9880    -1.1260 ca         1 63W      -0.085000
     14 CAG         -1.2330     0.2260     0.0250 ca         1 63W      -0.113500
     15 CAI         -2.3510    -0.1730     0.7410 ca         1 63W      -0.048500
     16 CAS         -3.6220     0.1880     0.3170 ca         1 63W      -0.208300
     17 CAW         -4.8400    -0.2070     1.0860 c3         1 63W       0.358300
     18 FAE         -4.5820    -1.1230     2.0240 f          1 63W      -0.115000
     19 FAF         -5.3970     0.8430     1.7100 f          1 63W      -0.115000
     20 FAD         -5.7900    -0.7180     0.2890 f          1 63W      -0.115000
     21 CAJ         -3.7700     0.9580    -0.8350 ca         1 63W      -0.048500
     22 CAH         -2.6590     1.3530    -1.5550 ca         1 63W      -0.113500
     23 H1           2.9820     3.0740     0.0700 hc         1 63W       0.054367
     24 H2           1.2430     3.0310    -0.1710 hc         1 63W       0.054367
     25 H3           1.9370     2.3270     1.2830 hc         1 63W       0.054367
     26 H4           4.1110     2.0100     1.5260 hn         1 63W       0.502500
     27 H5           5.4420     1.0800     2.0860 hn         1 63W       0.502500
     28 H6           5.5100    -3.8430    -0.4930 hn         1 63W       0.499000
     29 H7           6.4020    -3.0280     0.7300 hn         1 63W       0.499000
     30 H8          -0.2500    -0.0610     0.3740 ha         1 63W       0.129500
     31 H9          -2.2080    -0.7680     1.6330 ha         1 63W       0.129000
     32 H10         -4.7500     1.2500    -1.1880 ha         1 63W       0.129000
     33 H11         -2.7890     1.9420    -2.4540 ha         1 63W       0.129500
     34 CAA          2.0890     2.4640     0.2110 c3         1 63W      -0.058900
@<TRIPOS>BOND
     1     1     2 ar  
     2     1     5 ar  
     3     1    10 1   
     4     2     3 ar  
     5     2     6 1   
     6     3     4 ar  
     7     3     7 1   
     8     4     8 ar  
     9     5     8 ar  
    10     6    11 2   
    11     6    34 1   
    12     7    26 1   
    13     7    27 1   
    14     8     9 1   
    15     9    28 1   
    16     9    29 1   
    17    10    11 1   
    18    11    12 1   
    19    12    13 1   
    20    13    14 ar  
    21    13    22 ar  
    22    14    15 ar  
    23    14    30 1   
    24    15    16 ar  
    25    15    31 1   
    26    16    17 1   
    27    16    21 ar  
    28    17    18 1   
    29    17    19 1   
    30    17    20 1   
    31    21    22 ar  
    32    21    32 1   
    33    22    33 1   
    34    23    34 1   
    35    24    34 1   
    36    25    34 1   
@<TRIPOS>SUBSTRUCTURE
     1 63W         1 TEMP              0 ****  ****    0 ROOT
