@<TRIPOS>MOLECULE
63W
   34    36     1     0     0
SMALL
No Charge or Current Charge


@<TRIPOS>ATOM
      1 C4           2.6020    -0.7990    -1.0370 ca         1 63W       0.227300
      2 C5           2.9980     0.2620    -0.2350 ca         1 63W      -0.315800
      3 C6           4.0880     0.0260     0.6190 ca         1 63W       0.479900
      4 N1           4.7090    -1.1570     0.6630 nb         1 63W      -0.357000
      5 N3           3.2050    -1.9990    -1.0160 nb         1 63W      -0.267000
      6 CAR          2.1910     1.4680    -0.4170 cc         1 63W       0.060600
      7 NAC          4.6150     0.9510     1.4510 nv         1 63W      -1.075900
      8 C2           4.2290    -2.0980    -0.1570 ca         1 63W       0.440900
      9 NAB          4.8590    -3.2920    -0.1080 nv         1 63W      -1.057900
     10 SAN          1.2330    -0.4360    -2.0950 ss         1 63W      -0.086900
     11 CAT          1.2490     1.2050    -1.4080 cd         1 63W      -0.066800
     12 SAM          0.0270     2.4020    -1.8590 ss         1 63W      -0.003600
     13 CAP         -1.2510     1.4720    -1.0170 ca         1 63W      -0.085000
     14 CAG         -1.2700     1.3930     0.3860 ca         1 63W      -0.113500
     15 CAI         -2.2730     0.6560     1.0400 ca         1 63W      -0.048500
     16 CAS         -3.2750    -0.0060     0.2970 ca         1 63W      -0.208300
     17 CAW         -4.3610    -0.8210     1.0070 c3         1 63W       0.358300
     18 FAE         -3.9750    -2.1050     1.1830 f          1 63W      -0.115000
     19 FAF         -4.6580    -0.3260     2.2320 f          1 63W      -0.115000
     20 FAD         -5.5220    -0.8490     0.3130 f          1 63W      -0.115000
     21 CAJ         -3.2450     0.0750    -1.1130 ca         1 63W      -0.048500
     22 CAH         -2.2410     0.8140    -1.7640 ca         1 63W      -0.113500
     23 H1           3.3040     3.2460     0.0980 hc         1 63W       0.054367
     24 H2           1.5590     3.4840     0.1310 hc         1 63W       0.054367
     25 H3           2.3270     2.5820     1.4290 hc         1 63W       0.054367
     26 H4           4.4180     1.9270     1.2620 hn         1 63W       0.502500
     27 H5           5.5210     0.7470     1.8630 hn         1 63W       0.502500
     28 H6           4.3930    -4.0960    -0.5220 hn         1 63W       0.499000
     29 H7           5.4720    -3.4780     0.6810 hn         1 63W       0.499000
     30 H8          -0.5080     1.9000     0.9730 ha         1 63W       0.129500
     31 H9          -2.2630     0.6000     2.1270 ha         1 63W       0.129000
     32 H10         -3.9970    -0.4360    -1.7120 ha         1 63W       0.129000
     33 H11         -2.2300     0.8680    -2.8500 ha         1 63W       0.129500
     34 CAA          2.3530     2.7630     0.3480 c3         1 63W      -0.058900
@<TRIPOS>BOND
     1     1     2 ar  
     2     1     5 ar  
     3     1    10 1   
     4     2     3 ar  
     5     2     6 1   
     6     3     4 ar  
     7     3     7 1   
     8     4     8 ar  
     9     5     8 ar  
    10     6    11 2   
    11     6    34 1   
    12     7    26 1   
    13     7    27 1   
    14     8     9 1   
    15     9    28 1   
    16     9    29 1   
    17    10    11 1   
    18    11    12 1   
    19    12    13 1   
    20    13    14 ar  
    21    13    22 ar  
    22    14    15 ar  
    23    14    30 1   
    24    15    16 ar  
    25    15    31 1   
    26    16    17 1   
    27    16    21 ar  
    28    17    18 1   
    29    17    19 1   
    30    17    20 1   
    31    21    22 ar  
    32    21    32 1   
    33    22    33 1   
    34    23    34 1   
    35    24    34 1   
    36    25    34 1   
@<TRIPOS>SUBSTRUCTURE
     1 63W         1 TEMP              0 ****  ****    0 ROOT
