@<TRIPOS>MOLECULE
63X
   41    43     1     0     0
SMALL
bcc


@<TRIPOS>ATOM
      1 C15         -1.1420    -3.3920    -0.2090 ca         1 63X       0.117100
      2 C14         -1.6560    -2.7200    -1.3190 ca         1 63X      -0.193500
      3 C20          6.1870    -0.7520    -0.1080 c3         1 63X       0.129700
      4 C6           1.6080     1.3330    -0.1000 ca         1 63X      -0.146500
      5 C9           4.3020     0.6380     0.2640 ca         1 63X       0.130100
      6 C3          -1.9600     1.7590    -0.6020 cc         1 63X       0.418000
      7 C10          3.7730     1.7760     0.8810 ca         1 63X      -0.201500
      8 C7           2.1440     0.2030    -0.7080 ca         1 63X      -0.067000
      9 C8           3.4760    -0.1490    -0.5360 ca         1 63X      -0.201500
     10 C5          -0.9380     0.8740    -0.4430 cd         1 63X      -0.369600
     11 C12         -1.0140    -0.5880    -0.3660 ca         1 63X       0.009000
     12 C11          2.4490     2.1150     0.6970 ca         1 63X      -0.067000
     13 C16         -0.5630    -2.6550     0.8230 ca         1 63X      -0.193500
     14 O1          -1.4710     3.0000    -0.5790 os         1 63X      -0.094100
     15 N2          -0.1230     2.9720    -0.3940 nc         1 63X      -0.403300
     16 C4           0.2080     1.7130    -0.3070 cd         1 63X       0.403800
     17 C13         -1.5840    -1.3410    -1.3940 ca         1 63X      -0.083500
     18 C17         -0.5090    -1.2710     0.7360 ca         1 63X      -0.083500
     19 O18          5.6000     0.3830     0.4980 os         1 63X      -0.324900
     20 O19         -1.2460    -4.7340    -0.2200 os         1 63X      -0.327900
     21 C21         -0.7210    -5.4620     0.8730 c3         1 63X       0.131700
     22 C23         -4.2240     1.9920     0.5220 c          1 63X       0.947600
     23 O24         -5.4590     1.9930     0.3790 o          1 63X      -0.815800
     24 O25         -3.5720     2.2440     1.5480 o          1 63X      -0.815800
     25 H1          -2.1020    -3.2860    -2.1280 ha         1 63X       0.128500
     26 H2           7.2290    -0.7650     0.2040 h1         1 63X       0.034700
     27 H3           5.7100    -1.6800     0.2170 h1         1 63X       0.034700
     28 H4           6.1470    -0.6990    -1.1980 h1         1 63X       0.034700
     29 H5           4.4100     2.3860     1.5090 ha         1 63X       0.132500
     30 H6           1.5250    -0.4170    -1.3420 ha         1 63X       0.147000
     31 H7           3.8460    -1.0340    -1.0350 ha         1 63X       0.132500
     32 H8           2.0570     2.9960     1.1890 ha         1 63X       0.147000
     33 H9          -0.1530    -3.1360     1.7010 ha         1 63X       0.128500
     34 H10         -3.7800     2.1880    -1.6000 hc         1 63X       0.053200
     35 H11         -3.6390     0.5590    -0.9920 hc         1 63X       0.053200
     36 H12         -1.9690    -0.8430    -2.2750 ha         1 63X       0.137000
     37 H13         -0.0600    -0.7170     1.5510 ha         1 63X       0.137000
     38 H14         -0.9060    -6.5120     0.6620 h1         1 63X       0.033033
     39 H15          0.3550    -5.3100     0.9850 h1         1 63X       0.033033
     40 H16         -1.2140    -5.2000     1.8120 h1         1 63X       0.033033
     41 C22         -3.4190     1.6010    -0.7510 c3         1 63X      -0.297700
@<TRIPOS>BOND
     1     1     2 ar  
     2     1    13 ar  
     3     1    20 1   
     4     2    17 ar  
     5     2    25 1   
     6     3    19 1   
     7     3    26 1   
     8     3    27 1   
     9     3    28 1   
    10     4     8 ar  
    11     4    12 ar  
    12     4    16 1   
    13     5     7 ar  
    14     5     9 ar  
    15     5    19 1   
    16     6    10 2   
    17     6    14 1   
    18     6    41 1   
    19     7    12 ar  
    20     7    29 1   
    21     8     9 ar  
    22     8    30 1   
    23     9    31 1   
    24    10    11 1   
    25    10    16 1   
    26    11    17 ar  
    27    11    18 ar  
    28    12    32 1   
    29    13    18 ar  
    30    13    33 1   
    31    14    15 1   
    32    15    16 2   
    33    17    36 1   
    34    18    37 1   
    35    20    21 1   
    36    21    38 1   
    37    21    39 1   
    38    21    40 1   
    39    22    23 1   
    40    22    24 1   
    41    22    41 1   
    42    34    41 1   
    43    35    41 1   
@<TRIPOS>SUBSTRUCTURE
     1 63X         1 TEMP              0 ****  ****    0 ROOT
