@<TRIPOS>MOLECULE
63X
   41    43     1     0     0
SMALL
No Charge or Current Charge


@<TRIPOS>ATOM
      1 C15         -1.1070    -3.4750    -0.0960 ca         1 63X       0.117100
      2 C14         -2.0000    -2.7780    -0.9220 ca         1 63X      -0.175500
      3 C20          6.2260    -0.7120    -0.2260 c3         1 63X       0.152900
      4 C6           1.4980     1.3070     0.0830 ca         1 63X      -0.146500
      5 C9           4.2300     0.6190     0.3500 ca         1 63X       0.130100
      6 C3          -2.0820     1.6990    -0.5010 cc         1 63X       0.308300
      7 C10          3.6760     1.6410     1.1360 ca         1 63X      -0.183500
      8 C7           2.0640     0.3030    -0.7290 ca         1 63X      -0.049000
      9 C8           3.4190    -0.0490    -0.5920 ca         1 63X      -0.183500
     10 C5          -1.0450     0.8480    -0.2140 cd         1 63X      -0.239000
     11 C12         -1.0710    -0.6340    -0.1830 ca         1 63X       0.009000
     12 C11          2.3220     1.9920     0.9990 ca         1 63X      -0.049000
     13 C16         -0.1930    -2.7510     0.6960 ca         1 63X      -0.175500
     14 O1          -1.6230     2.9940    -0.4640 os         1 63X      -0.049700
     15 N2          -0.2160     2.9820    -0.1960 nc         1 63X      -0.403300
     16 C4           0.0880     1.7010    -0.0930 cd         1 63X       0.338500
     17 C13         -1.9860    -1.3730    -0.9650 ca         1 63X      -0.065500
     18 C17         -0.1800    -1.3450     0.6500 ca         1 63X      -0.065500
     19 O18          5.5650     0.3180     0.5290 os         1 63X      -0.348100
     20 O19         -1.1660    -4.8530    -0.0950 os         1 63X      -0.351100
     21 C21         -0.2900    -5.6570     0.7150 c3         1 63X       0.154900
     22 C23         -4.3820     2.6490    -0.2970 c          1 63X       0.737000
     23 O24         -4.5980     3.5260    -1.1190 o          1 63X      -0.710500
     24 O25         -4.6990     2.7220     0.8790 o          1 63X      -0.710500
     25 H1          -2.7040    -3.3300    -1.5390 ha         1 63X       0.110500
     26 H2           7.2780    -0.7880     0.0750 h1         1 63X       0.034700
     27 H3           5.7520    -1.6870    -0.0540 h1         1 63X       0.034700
     28 H4           6.1950    -0.4890    -1.3000 h1         1 63X       0.034700
     29 H5           4.3000     2.1660     1.8540 ha         1 63X       0.114500
     30 H6           1.4530    -0.2080    -1.4710 ha         1 63X       0.129000
     31 H7           3.8180    -0.8340    -1.2260 ha         1 63X       0.114500
     32 H8           1.9110     2.7910     1.6140 ha         1 63X       0.129000
     33 H9           0.5070    -3.2550     1.3550 ha         1 63X       0.110500
     34 H10         -3.6690     1.2890    -1.8080 hc         1 63X       0.053200
     35 H11         -3.8140     0.5910    -0.1150 hc         1 63X       0.053200
     36 H12         -2.6700    -0.8700    -1.6410 ha         1 63X       0.119000
     37 H13          0.5120    -0.8110     1.2940 ha         1 63X       0.119000
     38 H14         -0.5040    -6.7220     0.5630 h1         1 63X       0.033033
     39 H15          0.7590    -5.4790     0.4490 h1         1 63X       0.033033
     40 H16         -0.4280    -5.4310     1.7800 h1         1 63X       0.033033
     41 C22         -3.5470     1.4560    -0.7320 c3         1 63X      -0.297700
@<TRIPOS>BOND
     1     1     2 ar  
     2     1    13 ar  
     3     1    20 1   
     4     2    17 ar  
     5     2    25 1   
     6     3    19 1   
     7     3    26 1   
     8     3    27 1   
     9     3    28 1   
    10     4     8 ar  
    11     4    12 ar  
    12     4    16 1   
    13     5     7 ar  
    14     5     9 ar  
    15     5    19 1   
    16     6    10 2   
    17     6    14 1   
    18     6    41 1   
    19     7    12 ar  
    20     7    29 1   
    21     8     9 ar  
    22     8    30 1   
    23     9    31 1   
    24    10    11 1   
    25    10    16 1   
    26    11    17 ar  
    27    11    18 ar  
    28    12    32 1   
    29    13    18 ar  
    30    13    33 1   
    31    14    15 1   
    32    15    16 2   
    33    17    36 1   
    34    18    37 1   
    35    20    21 1   
    36    21    38 1   
    37    21    39 1   
    38    21    40 1   
    39    22    23 1   
    40    22    24 1   
    41    22    41 1   
    42    34    41 1   
    43    35    41 1   
@<TRIPOS>SUBSTRUCTURE
     1 63X         1 TEMP              0 ****  ****    0 ROOT
