@<TRIPOS>MOLECULE
63Y
   31    33     1     0     0
SMALL
No Charge or Current Charge


@<TRIPOS>ATOM
      1 C4           2.1690    -0.6260     1.0670 ca         1 63Y       0.231300
      2 C5           2.5220     0.4520     0.2720 ca         1 63Y      -0.310800
      3 C6           3.6890     0.3200    -0.4970 ca         1 63Y       0.477900
      4 N1           4.4280    -0.7940    -0.4660 nb         1 63Y      -0.357000
      5 N3           2.8910    -1.7580     1.1170 nb         1 63Y      -0.268000
      6 CAS         -1.9650     0.8200    -0.4670 ca         1 63Y       0.197000
      7 CAR         -2.8620    -0.1450    -0.9610 ca         1 63Y       0.077000
      8 FAE         -2.8950    -0.4280    -2.2860 f          1 63Y      -0.144000
      9 CAN         -3.7260    -0.8120    -0.0750 ca         1 63Y       0.179000
     10 FAD         -4.5920    -1.7420    -0.5380 f          1 63Y      -0.152000
     11 CAG         -3.7000    -0.5150     1.2970 ca         1 63Y      -0.157000
     12 CAH         -2.8040     0.4490     1.7920 ca         1 63Y      -0.029000
     13 CAQ         -1.9280     1.1150     0.9140 ca         1 63Y      -0.182000
     14 CAT          0.5650     1.2320     1.3010 cc         1 63Y      -0.048800
     15 SAL          0.6810    -0.3940     2.0110 ss         1 63Y      -0.109900
     16 C2           3.9830    -1.7660     0.3400 ca         1 63Y       0.440900
     17 NAB          4.7310    -2.8910     0.3650 nv         1 63Y      -1.062900
     18 NAC          4.1790     1.2830    -1.3090 nv         1 63Y      -1.074900
     19 CAP          1.5660     1.5510     0.3910 cd         1 63Y       0.064600
     20 CAA          1.6640     2.8490    -0.3860 c3         1 63Y      -0.054900
     21 H1          -4.3730    -1.0330     1.9760 ha         1 63Y       0.143000
     22 H2          -2.7850     0.6740     2.8570 ha         1 63Y       0.139000
     23 H3           4.3160    -3.7310     0.7610 hn         1 63Y       0.500000
     24 H4           5.4170    -3.0260    -0.3730 hn         1 63Y       0.500000
     25 H5           5.1300     1.1620    -1.6480 hn         1 63Y       0.500500
     26 H6           3.8730     2.2370    -1.1630 hn         1 63Y       0.500500
     27 H7           1.7400     2.6540    -1.4620 hc         1 63Y       0.053700
     28 H8           0.7970     3.5030    -0.2520 hc         1 63Y       0.053700
     29 H9           2.5450     3.4230    -0.0760 hc         1 63Y       0.053700
     30 SAK         -0.7890     2.3300     1.5790 ss         1 63Y      -0.017600
     31 FAF         -1.1480     1.4730    -1.3250 f          1 63Y      -0.143000
@<TRIPOS>BOND
     1     1     2 ar  
     2     1     5 ar  
     3     1    15 1   
     4     2     3 ar  
     5     2    19 1   
     6     3     4 ar  
     7     3    18 1   
     8     4    16 ar  
     9     5    16 ar  
    10     6     7 ar  
    11     6    13 ar  
    12     6    31 1   
    13     7     8 1   
    14     7     9 ar  
    15     9    10 1   
    16     9    11 ar  
    17    11    12 ar  
    18    11    21 1   
    19    12    13 ar  
    20    12    22 1   
    21    13    30 1   
    22    14    15 1   
    23    14    19 2   
    24    14    30 1   
    25    16    17 1   
    26    17    23 1   
    27    17    24 1   
    28    18    25 1   
    29    18    26 1   
    30    19    20 1   
    31    20    27 1   
    32    20    28 1   
    33    20    29 1   
@<TRIPOS>SUBSTRUCTURE
     1 63Y         1 TEMP              0 ****  ****    0 ROOT
