@<TRIPOS>MOLECULE
63Y
   31    33     1     0     0
SMALL
abcg2


@<TRIPOS>ATOM
      1 C4           2.4450    -0.7090     1.0650 ca         1 63Y       0.231300
      2 C5           2.6790     0.4030     0.2520 ca         1 63Y      -0.310800
      3 C6           3.8860     0.3240    -0.5010 ca         1 63Y       0.477900
      4 N1           4.6690    -0.7430    -0.3990 nb         1 63Y      -0.357000
      5 N3           3.2120    -1.7800     1.1780 nb         1 63Y      -0.268000
      6 CAS         -2.1890     0.8430    -0.4010 ca         1 63Y       0.197000
      7 CAR         -3.2250     0.1140    -0.9500 ca         1 63Y       0.077000
      8 FAE         -3.3430     0.0050    -2.2710 f          1 63Y      -0.144000
      9 CAN         -4.1490    -0.4890    -0.1130 ca         1 63Y       0.179000
     10 FAD         -5.1440    -1.1790    -0.6650 f          1 63Y      -0.152000
     11 CAG         -4.0420    -0.3800     1.2580 ca         1 63Y      -0.157000
     12 CAH         -2.9850     0.3400     1.7950 ca         1 63Y      -0.029000
     13 CAQ         -2.0480     0.9570     0.9750 ca         1 63Y      -0.182000
     14 CAT          0.6680     1.0160     1.2040 cc         1 63Y      -0.048800
     15 SAL          0.9730    -0.5320     1.9550 ss         1 63Y      -0.109900
     16 C2           4.3100    -1.7370     0.4200 ca         1 63Y       0.440900
     17 NAB          5.1550    -2.7800     0.5050 nv         1 63Y      -1.062900
     18 NAC          4.2860     1.2840    -1.3420 nv         1 63Y      -1.074900
     19 CAP          1.6410     1.3950     0.3300 cd         1 63Y       0.064600
     20 CAA          1.6230     2.6710    -0.4420 c3         1 63Y      -0.054900
     21 H1          -4.7710    -0.8610     1.8960 ha         1 63Y       0.143000
     22 H2          -2.8850     0.4210     2.8690 ha         1 63Y       0.139000
     23 H3           4.8640    -3.6120     0.9880 hn         1 63Y       0.500000
     24 H4           5.9090    -2.8600    -0.1540 hn         1 63Y       0.500000
     25 H5           5.1790     1.1920    -1.7940 hn         1 63Y       0.500500
     26 H6           3.8180     2.1670    -1.4210 hn         1 63Y       0.500500
     27 H7           1.6720     2.4820    -1.5150 hc         1 63Y       0.053700
     28 H8           0.7150     3.2390    -0.2500 hc         1 63Y       0.053700
     29 H9           2.4660     3.3090    -0.1710 hc         1 63Y       0.053700
     30 SAK         -0.7440     1.9280     1.6770 ss         1 63Y      -0.017600
     31 FAF         -1.3260     1.4320    -1.2210 f          1 63Y      -0.143000
@<TRIPOS>BOND
     1     1     2 ar  
     2     1     5 ar  
     3     1    15 1   
     4     2     3 ar  
     5     2    19 1   
     6     3     4 ar  
     7     3    18 1   
     8     4    16 ar  
     9     5    16 ar  
    10     6     7 ar  
    11     6    13 ar  
    12     6    31 1   
    13     7     8 1   
    14     7     9 ar  
    15     9    10 1   
    16     9    11 ar  
    17    11    12 ar  
    18    11    21 1   
    19    12    13 ar  
    20    12    22 1   
    21    13    30 1   
    22    14    15 1   
    23    14    19 2   
    24    14    30 1   
    25    16    17 1   
    26    17    23 1   
    27    17    24 1   
    28    18    25 1   
    29    18    26 1   
    30    19    20 1   
    31    20    27 1   
    32    20    28 1   
    33    20    29 1   
@<TRIPOS>SUBSTRUCTURE
     1 63Y         1 TEMP              0 ****  ****    0 ROOT
