@<TRIPOS>MOLECULE
63Z
   25    26     1     0     0
SMALL
No Charge or Current Charge


@<TRIPOS>ATOM
      1 N1          25.7530    68.8390    72.5960 nc         1 63Z      -0.190800
      2 C2          29.4890    64.0810    71.8310 c3         1 63Z       0.367300
      3 C4          27.2650    67.0210    73.0140 ca         1 63Z       0.002800
      4 C5          23.8940    67.6760    72.3940 cd         1 63Z       0.203300
      5 C6          22.4150    67.4470    72.1530 c3         1 63Z       0.149300
      6 C8          28.1300    67.6780    73.9100 ca         1 63Z      -0.052000
      7 C9          29.4220    67.1780    74.1350 ca         1 63Z      -0.100000
      8 N           25.9750    67.5140    72.7880 na         1 63Z       0.210000
      9 C           29.8670    66.0230    73.4730 ca         1 63Z       0.160000
     10 O           21.7960    66.7110    73.2230 oh         1 63Z      -0.645000
     11 C1          29.0150    65.3460    72.5660 ca         1 63Z      -0.182300
     12 C3          27.7130    65.8600    72.3470 ca         1 63Z      -0.070000
     13 C7          24.8570    66.7390    72.6570 cc         1 63Z      -0.181000
     14 F           29.8200    63.0930    72.6940 f          1 63Z      -0.105000
     15 F1          28.5490    63.5650    71.0060 f          1 63Z      -0.105000
     16 F2          30.5760    64.3240    71.0630 f          1 63Z      -0.105000
     17 N2          24.4680    68.9400    72.3640 nd         1 63Z      -0.326000
     18 Cl          31.5060    65.4620    73.8140 cl         1 63Z      -0.153000
     19 H1          21.9210    68.4200    72.0310 h1         1 63Z       0.031200
     20 H2          22.3020    66.9020    71.2060 h1         1 63Z       0.031200
     21 H3          27.8020    68.5720    74.4360 ha         1 63Z       0.155000
     22 H4          30.0850    67.6890    74.8290 ha         1 63Z       0.145000
     23 H5          20.8450    66.6140    72.9930 ho         1 63Z       0.445000
     24 H6          27.0400    65.3660    71.6490 ha         1 63Z       0.144000
     25 H7          24.8270    65.6640    72.7640 h4         1 63Z       0.173000
@<TRIPOS>BOND
     1     1     8 1   
     2     1    17 2   
     3     2    11 1   
     4     2    14 1   
     5     2    15 1   
     6     2    16 1   
     7     3     6 ar  
     8     3     8 1   
     9     3    12 ar  
    10     4     5 1   
    11     4    13 2   
    12     4    17 1   
    13     5    10 1   
    14     5    19 1   
    15     5    20 1   
    16     6     7 ar  
    17     6    21 1   
    18     7     9 ar  
    19     7    22 1   
    20     8    13 1   
    21     9    11 ar  
    22     9    18 1   
    23    10    23 1   
    24    11    12 ar  
    25    12    24 1   
    26    13    25 1   
@<TRIPOS>SUBSTRUCTURE
     1 63Z         1 TEMP              0 ****  ****    0 ROOT
