@<TRIPOS>MOLECULE
63Z
   25    26     1     0     0
SMALL
abcg2


@<TRIPOS>ATOM
      1 N1          25.6400    68.6260    72.9820 nc         1 63Z      -0.190800
      2 C2          29.5450    64.1860    71.7770 c3         1 63Z       0.367300
      3 C4          27.2720    66.9020    73.0850 ca         1 63Z       0.002800
      4 C5          23.8610    67.5390    72.4390 cd         1 63Z       0.203300
      5 C6          22.4270    67.3420    72.0970 c3         1 63Z       0.149300
      6 C8          28.0950    67.5800    73.9710 ca         1 63Z      -0.052000
      7 C9          29.4020    67.1610    74.1380 ca         1 63Z      -0.100000
      8 N           25.9480    67.3350    72.8820 na         1 63Z       0.210000
      9 C           29.8800    66.0640    73.4390 ca         1 63Z       0.160000
     10 O           21.6510    67.5850    73.2490 oh         1 63Z      -0.645000
     11 C1          29.0480    65.3660    72.5660 ca         1 63Z      -0.182300
     12 C3          27.7440    65.8020    72.3860 ca         1 63Z      -0.070000
     13 C7          24.8600    66.6120    72.5450 cc         1 63Z      -0.181000
     14 F           30.0720    63.2400    72.5580 f          1 63Z      -0.105000
     15 F1          28.5620    63.6060    71.0840 f          1 63Z      -0.105000
     16 F2          30.4850    64.5500    70.8990 f          1 63Z      -0.105000
     17 N2          24.3930    68.7540    72.7200 nd         1 63Z      -0.326000
     18 CL          31.5250    65.6040    73.6740 cl         1 63Z      -0.153000
     19 H1          22.1590    68.0220    71.2800 h1         1 63Z       0.031200
     20 H2          22.2970    66.3220    71.7170 h1         1 63Z       0.031200
     21 H3          27.7270    68.4300    74.5290 ha         1 63Z       0.155000
     22 H4          30.0510    67.6900    74.8220 ha         1 63Z       0.145000
     23 H5          20.7250    67.5680    72.9880 ho         1 63Z       0.445000
     24 H6          27.0960    65.2960    71.6840 ha         1 63Z       0.144000
     25 H7          24.8670    65.5420    72.4280 h4         1 63Z       0.173000
@<TRIPOS>BOND
     1     1     8 1   
     2     1    17 2   
     3     2    11 1   
     4     2    14 1   
     5     2    15 1   
     6     2    16 1   
     7     3     6 ar  
     8     3     8 1   
     9     3    12 ar  
    10     4     5 1   
    11     4    13 2   
    12     4    17 1   
    13     5    10 1   
    14     5    19 1   
    15     5    20 1   
    16     6     7 ar  
    17     6    21 1   
    18     7     9 ar  
    19     7    22 1   
    20     8    13 1   
    21     9    11 ar  
    22     9    18 1   
    23    10    23 1   
    24    11    12 ar  
    25    12    24 1   
    26    13    25 1   
@<TRIPOS>SUBSTRUCTURE
     1 63Z         1 TEMP              0 ****  ****    0 ROOT
