@<TRIPOS>MOLECULE
640
   50    51     1     0     0
SMALL
No Charge or Current Charge


@<TRIPOS>ATOM
      1 OAD         -9.0140     1.6040     1.5120 o          1 640      -0.713500
      2 CAU         -8.1620     1.6990     0.6420 c          1 640       0.694200
      3 OAG         -8.2210     2.5080    -0.2720 o          1 640      -0.713500
      4 CAH         -6.9900     0.7680     0.7110 ce         1 640      -0.158200
      5 CAI         -5.9340     0.7170    -0.1680 cf         1 640      -0.355200
      6 CAV         -4.7950    -0.2270    -0.0550 c          1 640       0.612300
      7 OAE         -4.7110    -1.0530     0.8440 o          1 640      -0.617100
      8 NAS         -3.8430    -0.1110    -1.0500 ns         1 640      -0.389500
      9 NAT         -2.6110    -0.8410    -1.0630 ns         1 640      -0.364500
     10 CAW         -1.5340    -0.5600    -0.2290 c          1 640       0.615700
     11 OAF         -1.5440     0.4250     0.4970 o          1 640      -0.567100
     12 CBA         -0.3990    -1.5560    -0.2400 ca         1 640      -0.202600
     13 CAP         -0.6850    -2.8970    -0.5730 ca         1 640       0.361900
     14 NAR          0.2360    -3.8840    -0.5820 nb         1 640      -0.672000
     15 CAJ          1.5010    -3.5660    -0.2460 ca         1 640       0.341900
     16 CAM          1.8890    -2.2670     0.1020 ca         1 640      -0.175000
     17 CAZ          0.9410    -1.2210     0.1040 ca         1 640       0.008700
     18 CAQ          1.3740     0.2150     0.4460 c3         1 640       0.002200
     19 CAX          2.8770     0.4640     0.3460 ca         1 640      -0.079300
     20 CAK          3.4840     0.6380    -0.9080 ca         1 640      -0.104500
     21 CAN          4.8680     0.8580    -1.0050 ca         1 640      -0.110500
     22 CAY          5.6850     0.9110     0.1490 ca         1 640      -0.069300
     23 CBB          7.2110     1.1550    -0.0050 c3         1 640       0.001300
     24 CAB          7.4440     2.5180    -0.7100 c3         1 640      -0.081767
     25 CAC          7.9630     1.1860     1.3560 c3         1 640      -0.081767
     26 CAA          7.8270     0.0180    -0.8650 c3         1 640      -0.081767
     27 CAO          5.0590     0.7340     1.4080 ca         1 640      -0.110500
     28 CAL          3.6740     0.5140     1.5030 ca         1 640      -0.104500
     29 HAH         -7.0120     0.0780     1.5530 ha         1 640       0.167000
     30 HAI         -5.9160     1.4090    -1.0090 ha         1 640       0.192000
     31 HAS         -3.9550     0.6270    -1.7400 hn         1 640       0.336500
     32 HAT         -2.5800    -1.6770    -1.6400 hn         1 640       0.328500
     33 HAP         -1.6970    -3.2140    -0.8220 h4         1 640       0.041100
     34 HAJ          2.2260    -4.3790    -0.2560 h4         1 640       0.013100
     35 HAM          2.9280    -2.0930     0.3620 ha         1 640       0.127000
     36 HAQ1         0.8750     0.9210    -0.2280 hc         1 640       0.077700
     37 HAQ2         1.0230     0.4670     1.4530 hc         1 640       0.077700
     38 HAK          2.8820     0.5990    -1.8140 ha         1 640       0.114500
     39 HAL          3.2210     0.3780     2.4830 ha         1 640       0.114500
     40 HAN          5.3020     0.9870    -1.9930 ha         1 640       0.109000
     41 HAO          5.6260     0.7620     2.3330 ha         1 640       0.109000
     42 HAB1         6.9830     3.3330    -0.1380 hc         1 640       0.034144
     43 HAB2         8.5160     2.7340    -0.8030 hc         1 640       0.034144
     44 HAB3         7.0180     2.5310    -1.7190 hc         1 640       0.034144
     45 HAC1         7.8570     0.2330     1.8890 hc         1 640       0.034144
     46 HAC2         9.0360     1.3600     1.2060 hc         1 640       0.034144
     47 HAC3         7.5860     1.9910     1.9980 hc         1 640       0.034144
     48 HAA1         7.4050     0.0000    -1.8760 hc         1 640       0.034144
     49 HAA2         8.9120     0.1440    -0.9630 hc         1 640       0.034144
     50 HAA3         7.6410    -0.9600    -0.4040 hc         1 640       0.034144
@<TRIPOS>BOND
     1     1     2 1   
     2     2     3 1   
     3     2     4 1   
     4     4     5 2   
     5     4    29 1   
     6     5     6 1   
     7     5    30 1   
     8     6     7 2   
     9     6     8 1   
    10     8     9 1   
    11     8    31 1   
    12     9    10 1   
    13     9    32 1   
    14    10    11 2   
    15    10    12 1   
    16    12    13 ar  
    17    12    17 ar  
    18    13    14 ar  
    19    13    33 1   
    20    14    15 ar  
    21    15    16 ar  
    22    15    34 1   
    23    16    17 ar  
    24    16    35 1   
    25    17    18 1   
    26    18    19 1   
    27    18    36 1   
    28    18    37 1   
    29    19    20 ar  
    30    19    28 ar  
    31    20    21 ar  
    32    20    38 1   
    33    21    22 ar  
    34    21    40 1   
    35    22    23 1   
    36    22    27 ar  
    37    23    24 1   
    38    23    25 1   
    39    23    26 1   
    40    24    42 1   
    41    24    43 1   
    42    24    44 1   
    43    25    45 1   
    44    25    46 1   
    45    25    47 1   
    46    26    48 1   
    47    26    49 1   
    48    26    50 1   
    49    27    28 ar  
    50    27    41 1   
    51    28    39 1   
@<TRIPOS>SUBSTRUCTURE
     1 640         1 TEMP              0 ****  ****    0 ROOT
