@<TRIPOS>MOLECULE
640
   50    51     1     0     0
SMALL
abcg2


@<TRIPOS>ATOM
      1 OAD         -9.0660     1.1070     0.4230 o          1 640      -0.713500
      2 CAU         -7.9710     1.5560     0.0340 c          1 640       0.694200
      3 OAG         -7.7200     2.7090    -0.3610 o          1 640      -0.713500
      4 CAH         -6.8260     0.5590     0.0510 ce         1 640      -0.158200
      5 CAI         -5.5940     0.8580    -0.3530 cf         1 640      -0.355200
      6 CAV         -4.5000    -0.1360    -0.3300 c          1 640       0.612300
      7 OAE         -4.6060    -1.2810     0.0710 o          1 640      -0.617100
      8 NAS         -3.3280     0.3530    -0.8210 ns         1 640      -0.389500
      9 NAT         -2.2040    -0.4050    -0.8140 ns         1 640      -0.364500
     10 CAW         -1.4720    -0.5620     0.3160 c          1 640       0.615700
     11 OAF         -1.6710     0.0690     1.3350 o          1 640      -0.567100
     12 CBA         -0.3950    -1.5850     0.1910 ca         1 640      -0.202600
     13 CAP         -0.7430    -2.8760    -0.1950 ca         1 640       0.361900
     14 NAR          0.1180    -3.8810    -0.2720 nb         1 640      -0.672000
     15 CAJ          1.3820    -3.6140     0.0300 ca         1 640       0.341900
     16 CAM          1.8310    -2.3610     0.4160 ca         1 640      -0.175000
     17 CAZ          0.9360    -1.3030     0.5130 ca         1 640       0.008700
     18 CAQ          1.3830     0.0720     0.9460 c3         1 640       0.002200
     19 CAX          2.8340     0.3540     0.6680 ca         1 640      -0.079300
     20 CAK          3.2630     0.6120    -0.6330 ca         1 640      -0.104500
     21 CAN          4.5950     0.8650    -0.9050 ca         1 640      -0.110500
     22 CAY          5.5620     0.8700     0.1060 ca         1 640      -0.069300
     23 CBB          7.0180     1.1590    -0.2440 c3         1 640       0.001300
     24 CAB          7.1210     2.5700    -0.8400 c3         1 640      -0.081767
     25 CAC          7.9380     1.0830     0.9740 c3         1 640      -0.081767
     26 CAA          7.5070     0.1330    -1.2760 c3         1 640      -0.081767
     27 CAO          5.1250     0.6140     1.4010 ca         1 640      -0.110500
     28 CAL          3.7840     0.3600     1.6770 ca         1 640      -0.104500
     29 HAH         -7.0440    -0.4420     0.4110 ha         1 640       0.167000
     30 HAI         -5.3700     1.8550    -0.7160 ha         1 640       0.192000
     31 HAS         -3.2300     1.3230    -1.0810 hn         1 640       0.336500
     32 HAT         -2.0080    -0.9530    -1.6400 hn         1 640       0.328500
     33 HAP         -1.7760    -3.1070    -0.4340 h4         1 640       0.041100
     34 HAJ          2.0830    -4.4380    -0.0390 h4         1 640       0.013100
     35 HAM          2.8810    -2.2200     0.6340 ha         1 640       0.127000
     36 HAQ1         0.7710     0.8280     0.4520 hc         1 640       0.077700
     37 HAQ2         1.1780     0.1770     2.0150 hc         1 640       0.077700
     38 HAK          2.5440     0.6150    -1.4440 ha         1 640       0.114500
     39 HAL          3.4840     0.1640     2.7000 ha         1 640       0.114500
     40 HAN          4.8830     1.0660    -1.9300 ha         1 640       0.109000
     41 HAO          5.8260     0.6080     2.2250 ha         1 640       0.109000
     42 HAB1         6.7990     3.3240    -0.1190 hc         1 640       0.034144
     43 HAB2         8.1550     2.7890    -1.1170 hc         1 640       0.034144
     44 HAB3         6.5080     2.6810    -1.7350 hc         1 640       0.034144
     45 HAC1         7.9230     0.0960     1.4390 hc         1 640       0.034144
     46 HAC2         8.9650     1.2850     0.6670 hc         1 640       0.034144
     47 HAC3         7.6760     1.8210     1.7360 hc         1 640       0.034144
     48 HAA1         6.9090     0.1470    -2.1880 hc         1 640       0.034144
     49 HAA2         8.5410     0.3420    -1.5570 hc         1 640       0.034144
     50 HAA3         7.4690    -0.8800    -0.8700 hc         1 640       0.034144
@<TRIPOS>BOND
     1     1     2 1   
     2     2     3 1   
     3     2     4 1   
     4     4     5 2   
     5     4    29 1   
     6     5     6 1   
     7     5    30 1   
     8     6     7 2   
     9     6     8 1   
    10     8     9 1   
    11     8    31 1   
    12     9    10 1   
    13     9    32 1   
    14    10    11 2   
    15    10    12 1   
    16    12    13 ar  
    17    12    17 ar  
    18    13    14 ar  
    19    13    33 1   
    20    14    15 ar  
    21    15    16 ar  
    22    15    34 1   
    23    16    17 ar  
    24    16    35 1   
    25    17    18 1   
    26    18    19 1   
    27    18    36 1   
    28    18    37 1   
    29    19    20 ar  
    30    19    28 ar  
    31    20    21 ar  
    32    20    38 1   
    33    21    22 ar  
    34    21    40 1   
    35    22    23 1   
    36    22    27 ar  
    37    23    24 1   
    38    23    25 1   
    39    23    26 1   
    40    24    42 1   
    41    24    43 1   
    42    24    44 1   
    43    25    45 1   
    44    25    46 1   
    45    25    47 1   
    46    26    48 1   
    47    26    49 1   
    48    26    50 1   
    49    27    28 ar  
    50    27    41 1   
    51    28    39 1   
@<TRIPOS>SUBSTRUCTURE
     1 640         1 TEMP              0 ****  ****    0 ROOT
