@<TRIPOS>MOLECULE
641
   43    45     1     0     0
SMALL
abcg2


@<TRIPOS>ATOM
      1 C1          -1.7170     1.5650    -2.3800 c6         1 641      -0.072900
      2 C2          -0.9790     2.3300    -3.4740 c6         1 641      -0.088400
      3 C3           0.5330     2.1850    -3.3120 c6         1 641       0.119700
      4 C4           0.9840     2.6410    -1.9230 c6         1 641      -0.088400
      5 C5           0.2390     1.8790    -0.8320 c6         1 641      -0.072900
      6 C6          -1.2720     2.0110    -0.9910 c6         1 641      -0.077400
      7 C7           2.2500     2.3360    -5.0740 c          1 641       0.570000
      8 C8           2.7430     3.3750    -6.0590 c5         1 641      -0.169400
      9 C9           2.2030     4.6990    -5.5000 c5         1 641      -0.167700
     10 C10          0.9680     4.2580    -4.7130 c5         1 641       0.115000
     11 N11          1.2520     2.8820    -4.3590 n          1 641      -0.404800
     12 C12          3.2530     5.3200    -4.5980 c          1 641       0.610100
     13 N13          4.0850     6.1750    -5.2550 ns         1 641      -0.148000
     14 O14          3.3570     5.0390    -3.4210 o          1 641      -0.554100
     15 O15          2.6710     1.1940    -4.9730 o          1 641      -0.546000
     16 C15          5.2080     6.8480    -4.7830 ca         1 641       0.002000
     17 C20          5.6570     6.7840    -3.4630 ca         1 641      -0.150500
     18 C19          6.7900     7.5020    -3.1150 ca         1 641       0.154000
     19 CL2          7.3430     7.4210    -1.4760 cl         1 641      -0.189000
     20 C18          7.4980     8.2800    -4.0130 ca         1 641      -0.126000
     21 C17          7.0260     8.3220    -5.3160 ca         1 641       0.154000
     22 C16          5.9020     7.6250    -5.7130 ca         1 641      -0.150500
     23 CL1          7.8730     9.2790    -6.4810 cl         1 641      -0.189000
     24 HN13         3.8750     6.3350    -6.2290 hn         1 641       0.153000
     25 H9           1.9330     5.3900    -6.2990 hc         1 641       0.072700
     26 H101         0.7940     4.8660    -3.8250 h1         1 641       0.057200
     27 H102         0.0760     4.3260    -5.3420 h1         1 641       0.057200
     28 H81          3.8270     3.3370    -6.1710 hc         1 641       0.082700
     29 H82          2.3110     3.1620    -7.0400 hc         1 641       0.082700
     30 H3           0.7850     1.1270    -3.4220 h1         1 641       0.081700
     31 H41          0.8010     3.7150    -1.8120 hc         1 641       0.047200
     32 H42          2.0620     2.4950    -1.8270 hc         1 641       0.047200
     33 H51          0.5530     2.2380     0.1510 hc         1 641       0.042700
     34 H52          0.5150     0.8200    -0.8770 hc         1 641       0.042700
     35 H61         -1.7850     1.4260    -0.2240 hc         1 641       0.039700
     36 H62         -1.5640     3.0550    -0.8340 hc         1 641       0.039700
     37 H4          -1.5280     0.4920    -2.4940 hc         1 641       0.042700
     38 H1          -2.7940     1.7020    -2.4970 hc         1 641       0.042700
     39 H2          -1.2810     1.9700    -4.4610 hc         1 641       0.047200
     40 H5          -1.2620     3.3880    -3.4210 hc         1 641       0.047200
     41 H16          5.5640     7.6780    -6.7400 ha         1 641       0.148000
     42 H18          8.3810     8.8270    -3.7150 ha         1 641       0.148000
     43 H20          5.1460     6.1920    -2.7240 ha         1 641       0.148000
@<TRIPOS>BOND
     1     1     2 1   
     2     1     6 1   
     3     1    37 1   
     4     1    38 1   
     5     2     3 1   
     6     2    39 1   
     7     2    40 1   
     8     3     4 1   
     9     3    11 1   
    10     3    30 1   
    11     4     5 1   
    12     4    31 1   
    13     4    32 1   
    14     5     6 1   
    15     5    33 1   
    16     5    34 1   
    17     6    35 1   
    18     6    36 1   
    19     7     8 1   
    20     7    11 1   
    21     7    15 2   
    22     8     9 1   
    23     8    28 1   
    24     8    29 1   
    25     9    10 1   
    26     9    12 1   
    27     9    25 1   
    28    10    11 1   
    29    10    26 1   
    30    10    27 1   
    31    12    13 1   
    32    12    14 2   
    33    13    16 1   
    34    13    24 1   
    35    16    17 ar  
    36    16    22 ar  
    37    17    18 ar  
    38    17    43 1   
    39    18    19 1   
    40    18    20 ar  
    41    20    21 ar  
    42    20    42 1   
    43    21    22 ar  
    44    21    23 1   
    45    22    41 1   
@<TRIPOS>SUBSTRUCTURE
     1 641         1 TEMP              0 ****  ****    0 ROOT
