@<TRIPOS>MOLECULE
641
   43    45     1     0     0
SMALL
No Charge or Current Charge


@<TRIPOS>ATOM
      1 C1          -1.8230     2.0500    -2.2360 c6         1 641      -0.072900
      2 C2          -1.0410     2.6080    -3.4520 c6         1 641      -0.088400
      3 C3           0.4440     2.1490    -3.4240 c6         1 641       0.119700
      4 C4           1.1080     2.5900    -2.0910 c6         1 641      -0.088400
      5 C5           0.3350     2.0380    -0.8670 c6         1 641      -0.072900
      6 C6          -1.1520     2.4670    -0.9040 c6         1 641      -0.077400
      7 C7           2.2440     1.9230    -5.1710 c          1 641       0.570000
      8 C8           2.7910     2.8270    -6.2730 c5         1 641      -0.169400
      9 C9           2.5020     4.2720    -5.7530 c5         1 641      -0.167700
     10 C10          1.1460     4.0790    -5.0020 c5         1 641       0.115000
     11 N11          1.2050     2.6550    -4.5930 n          1 641      -0.404800
     12 C12          3.6040     4.7300    -4.7530 c          1 641       0.610100
     13 N13          4.1420     5.9310    -5.2000 ns         1 641      -0.148000
     14 O14          3.9550     4.1350    -3.7420 o          1 641      -0.554100
     15 O15          2.7110     0.8880    -4.7200 o          1 641      -0.546000
     16 C15          5.1530     6.7790    -4.6720 ca         1 641       0.002000
     17 C20          5.8100     6.5410    -3.4430 ca         1 641      -0.150500
     18 C19          6.7990     7.4260    -2.9840 ca         1 641       0.154000
     19 Cl2          7.6070     7.1160    -1.4530 cl         1 641      -0.189000
     20 C18          7.1450     8.5560    -3.7370 ca         1 641      -0.126000
     21 C17          6.4970     8.8010    -4.9550 ca         1 641       0.154000
     22 C16          5.5070     7.9190    -5.4190 ca         1 641      -0.150500
     23 Cl1          6.9230    10.2170    -5.9060 cl         1 641      -0.189000
     24 HN13         3.7370     6.2690    -6.0640 hn         1 641       0.153000
     25 H9           2.4060     4.9930    -6.5740 hc         1 641       0.072700
     26 H101         1.0400     4.7630    -4.1480 h1         1 641       0.057200
     27 H102         0.2940     4.2410    -5.6760 h1         1 641       0.057200
     28 H81          3.8350     2.5970    -6.5100 hc         1 641       0.082700
     29 H82          2.1730     2.6600    -7.1620 hc         1 641       0.082700
     30 H3           0.4510     1.0490    -3.4610 h1         1 641       0.081700
     31 H41          1.1530     3.6860    -2.0340 hc         1 641       0.047200
     32 H42          2.1470     2.2350    -2.0590 hc         1 641       0.047200
     33 H51          0.8030     2.3950     0.0610 hc         1 641       0.042700
     34 H52          0.4040     0.9420    -0.8500 hc         1 641       0.042700
     35 H61         -1.6910     2.0190    -0.0580 hc         1 641       0.039700
     36 H62         -1.2260     3.5570    -0.7790 hc         1 641       0.039700
     37 H4          -1.8730     0.9540    -2.2990 hc         1 641       0.042700
     38 H1          -2.8600     2.4120    -2.2610 hc         1 641       0.042700
     39 H2          -1.5160     2.2710    -4.3830 hc         1 641       0.047200
     40 H5          -1.1050     3.7050    -3.4460 hc         1 641       0.047200
     41 H16          5.0150     8.1270    -6.3660 ha         1 641       0.148000
     42 H18          7.9100     9.2390    -3.3790 ha         1 641       0.148000
     43 H20          5.5700     5.6810    -2.8270 ha         1 641       0.148000
@<TRIPOS>BOND
     1     1     2 1   
     2     1     6 1   
     3     1    37 1   
     4     1    38 1   
     5     2     3 1   
     6     2    39 1   
     7     2    40 1   
     8     3     4 1   
     9     3    11 1   
    10     3    30 1   
    11     4     5 1   
    12     4    31 1   
    13     4    32 1   
    14     5     6 1   
    15     5    33 1   
    16     5    34 1   
    17     6    35 1   
    18     6    36 1   
    19     7     8 1   
    20     7    11 1   
    21     7    15 2   
    22     8     9 1   
    23     8    28 1   
    24     8    29 1   
    25     9    10 1   
    26     9    12 1   
    27     9    25 1   
    28    10    11 1   
    29    10    26 1   
    30    10    27 1   
    31    12    13 1   
    32    12    14 2   
    33    13    16 1   
    34    13    24 1   
    35    16    17 ar  
    36    16    22 ar  
    37    17    18 ar  
    38    17    43 1   
    39    18    19 1   
    40    18    20 ar  
    41    20    21 ar  
    42    20    42 1   
    43    21    22 ar  
    44    21    23 1   
    45    22    41 1   
@<TRIPOS>SUBSTRUCTURE
     1 641         1 TEMP              0 ****  ****    0 ROOT
