@<TRIPOS>MOLECULE
642
   58    63     1     0     0
SMALL
bcc


@<TRIPOS>ATOM
      1 C1          -7.5610     0.9810    -0.3960 cx         1 642      -0.169700
      2 C2          -6.5880     0.0400     0.2660 cx         1 642      -0.235000
      3 C3          -7.9450    -0.4420    -0.1440 cx         1 642      -0.100400
      4 C4          -7.2990     1.4670    -1.8110 c          1 642       0.943600
      5 O1          -6.8920     0.6310    -2.6410 o          1 642      -0.834300
      6 O2          -7.5200     2.6770    -2.0180 o          1 642      -0.834300
      7 C5          -6.3270     0.1980     1.7280 c          1 642       0.734500
      8 N1          -5.1210    -0.3490     1.9760 ns         1 642      -0.581900
      9 O3          -7.0640     0.7130     2.5530 o          1 642      -0.654500
     10 C6          -4.5450    -1.0700     0.8560 c5         1 642       0.145000
     11 C7          -5.2960    -0.4560    -0.3430 c5         1 642      -0.021400
     12 C8          -3.0500    -0.9290     0.7750 ca         1 642      -0.110300
     13 C9          -2.4400     0.3260     0.8260 ca         1 642      -0.076000
     14 C10         -1.0710     0.4590     0.7120 ca         1 642      -0.193000
     15 C11         -0.2690    -0.6720     0.5420 ca         1 642       0.130100
     16 C12         -0.8580    -1.9290     0.5000 ca         1 642      -0.193000
     17 C13         -2.2410    -2.0420     0.6190 ca         1 642      -0.076000
     18 O4           1.0580    -0.4460     0.4280 os         1 642      -0.327900
     19 C14          1.9160    -1.5440     0.2620 c3         1 642       0.183700
     20 C15          3.3230    -1.0590     0.0800 ca         1 642      -0.038300
     21 N2           5.9660    -0.1990    -0.2790 nb         1 642      -0.676000
     22 C16          4.9930     0.6660    -0.1460 cp         1 642       0.492800
     23 C17          3.6460     0.2670     0.0490 ca         1 642      -0.211300
     24 C18          5.6820    -1.5190    -0.2410 ca         1 642       0.407600
     25 C19          4.3660    -2.0140    -0.0710 ca         1 642      -0.142300
     26 C20          4.1550    -3.4110    -0.0540 ca         1 642      -0.113000
     27 C21          5.2080    -4.2760    -0.1970 ca         1 642      -0.127000
     28 C22          6.5170    -3.7820    -0.3630 ca         1 642      -0.126000
     29 C23          6.7500    -2.4340    -0.3860 ca         1 642      -0.165300
     30 C24          5.3530     2.1010    -0.1960 cp         1 642      -0.152500
     31 C25          6.6620     2.5000     0.0820 ca         1 642      -0.097000
     32 C26          7.0180     3.8380     0.0360 ca         1 642      -0.139000
     33 C27          6.0750     4.8030    -0.2970 ca         1 642      -0.118000
     34 C28          4.7730     4.4170    -0.5830 ca         1 642      -0.139000
     35 C29          4.4140     3.0780    -0.5310 ca         1 642      -0.097000
     36 H1          -8.0030     1.7100     0.2740 hc         1 642       0.079700
     37 H3          -8.6710    -0.6480     0.6330 hc         1 642       0.065200
     38 H3A         -7.9820    -1.1070    -0.9980 hc         1 642       0.065200
     39 HN1         -4.7940    -0.4960     2.9200 hn         1 642       0.300500
     40 H6          -4.7880    -2.1360     0.9370 h1         1 642       0.032700
     41 H7          -5.4320    -1.1810    -1.1400 hc         1 642       0.073700
     42 H7A         -4.7190     0.3780    -0.7470 hc         1 642       0.073700
     43 H9          -3.0440     1.2150     0.9580 ha         1 642       0.141500
     44 H10         -0.6110     1.4390     0.7500 ha         1 642       0.132500
     45 H12         -0.2710    -2.8300     0.3830 ha         1 642       0.132500
     46 H13         -2.6860    -3.0300     0.5870 ha         1 642       0.141500
     47 H14          1.8630    -2.2130     1.1300 h1         1 642       0.047200
     48 H14A         1.6290    -2.1350    -0.6180 h1         1 642       0.047200
     49 H17          2.8810     1.0160     0.1840 ha         1 642       0.165000
     50 H20          3.1570    -3.8100     0.0720 ha         1 642       0.132000
     51 H21          5.0350    -5.3430    -0.1820 ha         1 642       0.131000
     52 H22          7.3390    -4.4770    -0.4750 ha         1 642       0.130000
     53 H23          7.7500    -2.0410    -0.5170 ha         1 642       0.146000
     54 H25          7.4020     1.7540     0.3400 ha         1 642       0.143000
     55 H26          8.0350     4.1300     0.2640 ha         1 642       0.130500
     56 H27          6.3530     5.8480    -0.3340 ha         1 642       0.128000
     57 H28          4.0320     5.1590    -0.8520 ha         1 642       0.130500
     58 H29          3.3970     2.8030    -0.7780 ha         1 642       0.143000
@<TRIPOS>BOND
     1     1     2 1   
     2     1     3 1   
     3     1     4 1   
     4     1    36 1   
     5     2     3 1   
     6     2     7 1   
     7     2    11 1   
     8     3    37 1   
     9     3    38 1   
    10     4     5 1   
    11     4     6 1   
    12     7     8 1   
    13     7     9 2   
    14     8    10 1   
    15     8    39 1   
    16    10    11 1   
    17    10    12 1   
    18    10    40 1   
    19    11    41 1   
    20    11    42 1   
    21    12    13 ar  
    22    12    17 ar  
    23    13    14 ar  
    24    13    43 1   
    25    14    15 ar  
    26    14    44 1   
    27    15    16 ar  
    28    15    18 1   
    29    16    17 ar  
    30    16    45 1   
    31    17    46 1   
    32    18    19 1   
    33    19    20 1   
    34    19    47 1   
    35    19    48 1   
    36    20    23 ar  
    37    20    25 ar  
    38    21    22 ar  
    39    21    24 ar  
    40    22    23 ar  
    41    22    30 1   
    42    23    49 1   
    43    24    25 ar  
    44    24    29 ar  
    45    25    26 ar  
    46    26    27 ar  
    47    26    50 1   
    48    27    28 ar  
    49    27    51 1   
    50    28    29 ar  
    51    28    52 1   
    52    29    53 1   
    53    30    31 ar  
    54    30    35 ar  
    55    31    32 ar  
    56    31    54 1   
    57    32    33 ar  
    58    32    55 1   
    59    33    34 ar  
    60    33    56 1   
    61    34    35 ar  
    62    34    57 1   
    63    35    58 1   
@<TRIPOS>SUBSTRUCTURE
     1 642         1 TEMP              0 ****  ****    0 ROOT
