@<TRIPOS>MOLECULE
642
   58    63     1     0     0
SMALL
No Charge or Current Charge


@<TRIPOS>ATOM
      1 C1          -7.5900     0.7500    -0.6590 cx         1 642      -0.169700
      2 C2          -6.6410     0.0790     0.3290 cx         1 642      -0.235000
      3 C3          -7.9290    -0.6130    -0.0640 cx         1 642      -0.100400
      4 C4          -7.2300     0.8620    -2.1330 c          1 642       0.733000
      5 O1          -7.8290     0.1620    -2.9350 o          1 642      -0.729000
      6 O2          -6.4150     1.7140    -2.4550 o          1 642      -0.729000
      7 C5          -6.4060     0.5540     1.7160 c          1 642       0.592000
      8 N1          -5.2340     0.0060     2.1350 ns         1 642      -0.514900
      9 O3          -7.1050     1.3080     2.3730 o          1 642      -0.579000
     10 C6          -4.6540    -0.9400     1.1660 c5         1 642       0.145000
     11 C7          -5.3520    -0.5610    -0.2000 c5         1 642      -0.021400
     12 C8          -3.1470    -0.8120     0.9510 ca         1 642      -0.110300
     13 C9          -2.5220     0.4510     0.8920 ca         1 642      -0.058000
     14 C10         -1.1340     0.5510     0.6930 ca         1 642      -0.175000
     15 C11         -0.3510    -0.6040     0.5510 ca         1 642       0.130100
     16 C12         -0.9680    -1.8720     0.6100 ca         1 642      -0.175000
     17 C13         -2.3570    -1.9700     0.8090 ca         1 642      -0.058000
     18 O4           1.0050    -0.4430     0.3580 os         1 642      -0.351100
     19 C14          1.8970    -1.5630     0.2010 c3         1 642       0.206900
     20 C15          3.3480    -1.0980     0.0020 ca         1 642      -0.038300
     21 N2           6.0150    -0.2220    -0.3480 nb         1 642      -0.676000
     22 C16          5.0330     0.6820    -0.1420 cp         1 642       0.427500
     23 C17          3.6940     0.2700     0.0450 ca         1 642      -0.128000
     24 C18          5.7220    -1.5390    -0.3940 ca         1 642       0.277000
     25 C19          4.3960    -2.0250    -0.2250 ca         1 642      -0.077000
     26 C20          4.1530    -3.4190    -0.2810 ca         1 642      -0.095000
     27 C21          5.2080    -4.3180    -0.5040 ca         1 642      -0.109000
     28 C22          6.5140    -3.8400    -0.6710 ca         1 642      -0.108000
     29 C23          6.7640    -2.4590    -0.6150 ca         1 642      -0.082000
     30 C24          5.4440     2.1320    -0.1070 cp         1 642      -0.152500
     31 C25          6.7720     2.5150     0.2320 ca         1 642      -0.079000
     32 C26          7.1570     3.8670     0.2680 ca         1 642      -0.121000
     33 C27          6.2280     4.8720    -0.0380 ca         1 642      -0.100000
     34 C28          4.9130     4.5240    -0.3830 ca         1 642      -0.121000
     35 C29          4.5260     3.1730    -0.4180 ca         1 642      -0.079000
     36 H1          -8.1660     1.5910    -0.2850 hc         1 642       0.079700
     37 H3          -8.7300    -0.6520     0.6710 hc         1 642       0.065200
     38 H3A         -7.8740    -1.4840    -0.7120 hc         1 642       0.065200
     39 HN1         -4.8970     0.1950     3.0700 hn         1 642       0.300500
     40 H6          -4.9160    -1.9680     1.4520 h1         1 642       0.032700
     41 H7          -5.5030    -1.4360    -0.8440 hc         1 642       0.073700
     42 H7A         -4.7590     0.1640    -0.7680 hc         1 642       0.073700
     43 H9          -3.1130     1.3590     0.9980 ha         1 642       0.123500
     44 H10         -0.6640     1.5290     0.6480 ha         1 642       0.114500
     45 H12         -0.3930    -2.7870     0.5040 ha         1 642       0.114500
     46 H13         -2.8210    -2.9530     0.8520 ha         1 642       0.123500
     47 H14          1.8530    -2.2070     1.0890 h1         1 642       0.047200
     48 H14A         1.5950    -2.1590    -0.6700 h1         1 642       0.047200
     49 H17          2.9370     1.0210     0.2390 ha         1 642       0.147000
     50 H20          3.1530    -3.8260    -0.1530 ha         1 642       0.114000
     51 H21          5.0110    -5.3880    -0.5450 ha         1 642       0.113000
     52 H22          7.3320    -4.5360    -0.8430 ha         1 642       0.112000
     53 H23          7.7790    -2.0940    -0.7450 ha         1 642       0.128000
     54 H25          7.5130     1.7580     0.4800 ha         1 642       0.125000
     55 H26          8.1770     4.1330     0.5340 ha         1 642       0.112500
     56 H27          6.5260     5.9180    -0.0110 ha         1 642       0.110000
     57 H28          4.1930     5.3010    -0.6270 ha         1 642       0.112500
     58 H29          3.5040     2.9390    -0.7080 ha         1 642       0.125000
@<TRIPOS>BOND
     1     1     2 1   
     2     1     3 1   
     3     1     4 1   
     4     1    36 1   
     5     2     3 1   
     6     2     7 1   
     7     2    11 1   
     8     3    37 1   
     9     3    38 1   
    10     4     5 1   
    11     4     6 1   
    12     7     8 1   
    13     7     9 2   
    14     8    10 1   
    15     8    39 1   
    16    10    11 1   
    17    10    12 1   
    18    10    40 1   
    19    11    41 1   
    20    11    42 1   
    21    12    13 ar  
    22    12    17 ar  
    23    13    14 ar  
    24    13    43 1   
    25    14    15 ar  
    26    14    44 1   
    27    15    16 ar  
    28    15    18 1   
    29    16    17 ar  
    30    16    45 1   
    31    17    46 1   
    32    18    19 1   
    33    19    20 1   
    34    19    47 1   
    35    19    48 1   
    36    20    23 ar  
    37    20    25 ar  
    38    21    22 ar  
    39    21    24 ar  
    40    22    23 ar  
    41    22    30 1   
    42    23    49 1   
    43    24    25 ar  
    44    24    29 ar  
    45    25    26 ar  
    46    26    27 ar  
    47    26    50 1   
    48    27    28 ar  
    49    27    51 1   
    50    28    29 ar  
    51    28    52 1   
    52    29    53 1   
    53    30    31 ar  
    54    30    35 ar  
    55    31    32 ar  
    56    31    54 1   
    57    32    33 ar  
    58    32    55 1   
    59    33    34 ar  
    60    33    56 1   
    61    34    35 ar  
    62    34    57 1   
    63    35    58 1   
@<TRIPOS>SUBSTRUCTURE
     1 642         1 TEMP              0 ****  ****    0 ROOT
