@<TRIPOS>MOLECULE
643
   62    66     1     0     0
SMALL
abcg2


@<TRIPOS>ATOM
      1 C4          -5.2790     1.9860     0.1450 ca         1 643      -0.031000
      2 C5          -7.6970     1.0590     0.5230 cc         1 643      -0.163400
      3 C6          -6.2790     1.0220     0.3150 ca         1 643      -0.053800
      4 C7          -5.9010    -0.3390     0.2980 ca         1 643      -0.077200
      5 C15         -1.5960    -0.9980     0.7230 ca         1 643      -0.074000
      6 C17         -1.4250     0.2200    -1.3410 ca         1 643      -0.029300
      7 C21          3.7760     0.9860    -0.2170 ca         1 643      -0.079500
      8 C22          3.4870     1.6890     0.9450 ca         1 643       0.090000
      9 C26          3.2790     1.5160    -1.4010 ca         1 643       0.090000
     10 C28          3.9620    -1.5590     0.1130 cc         1 643      -0.201300
     11 C1          -3.9730     1.5780    -0.0400 ca         1 643      -0.164000
     12 C2          -3.6090     0.2160    -0.0640 cp         1 643      -0.058000
     13 C3          -4.5850    -0.7540     0.1110 ca         1 643      -0.129000
     14 N8          -7.0290    -1.0910     0.4890 na         1 643      -0.110700
     15 C9          -8.0940    -0.2500     0.6200 cd         1 643      -0.158100
     16 C11         -8.5970     2.2490     0.6230 c          1 643       0.732200
     17 O12         -8.0570     3.3720     0.5260 o          1 643      -0.729500
     18 O13         -9.8130     2.0230     0.7940 o          1 643      -0.729500
     19 C14         -0.2720    -1.4050     0.6350 ca         1 643      -0.202000
     20 C16         -2.1930    -0.1830    -0.2340 cp         1 643      -0.027000
     21 C18         -0.1010    -0.1860    -1.4290 ca         1 643      -0.153000
     22 C19          0.4870    -0.9840    -0.4500 ca         1 643       0.115100
     23 O20          1.7840    -1.3060    -0.6480 os         1 643      -0.352100
     24 C23          2.7490     2.8620     0.8850 ca         1 643       0.351900
     25 N24          2.2940     3.3470    -0.2580 nb         1 643      -0.638000
     26 C25          2.5470     2.6940    -1.3810 ca         1 643       0.351900
     27 C27          4.5130    -0.2860    -0.1800 cc         1 643       0.337500
     28 C29          5.0270    -2.3920     0.0060 cd         1 643       0.201300
     29 O30          6.1080    -1.6690    -0.3110 os         1 643      -0.068700
     30 N31          5.7830    -0.3550    -0.4330 nd         1 643      -0.336300
     31 CL32         4.0390     1.1070     2.4670 cl         1 643      -0.166000
     32 C33          5.1950    -3.8620     0.1720 c3         1 643      -0.099000
     33 C34          5.6920    -4.5140    -1.1190 c3         1 643      -0.087600
     34 C35          6.1100    -4.1840     1.3560 c3         1 643      -0.087600
     35 C36          2.5390    -1.8200     0.4360 c3         1 643       0.245900
     36 CL37         3.5410     0.7070    -2.8940 cl         1 643      -0.166000
     37 H4          -5.5290     3.0370     0.1690 ha         1 643       0.148000
     38 H10         -6.3960    -2.9210     1.2840 h1         1 643       0.031700
     39 H10A        -8.0810    -2.8530     0.7640 h1         1 643       0.031700
     40 H10B        -6.7920    -2.9580    -0.4410 h1         1 643       0.031700
     41 H15         -2.1790    -1.3210     1.5770 ha         1 643       0.117000
     42 H1          -3.2000     2.3290    -0.1470 ha         1 643       0.095000
     43 H3          -4.3250    -1.8060     0.0870 ha         1 643       0.094000
     44 H9          -9.0830    -0.6500     0.7810 h4         1 643       0.214000
     45 H14          0.1370    -2.0430     1.4070 ha         1 643       0.106000
     46 H18          0.4950     0.1170    -2.2820 ha         1 643       0.116000
     47 H23          2.5280     3.4160     1.7900 h4         1 643       0.041100
     48 H25          2.1570     3.1110    -2.3010 h4         1 643       0.041100
     49 H33          4.2010    -4.2590     0.3960 hc         1 643       0.065700
     50 H34          6.6990    -4.1800    -1.3730 hc         1 643       0.043367
     51 H34A         5.7230    -5.5970    -0.9970 hc         1 643       0.043367
     52 H34B         5.0340    -4.2910    -1.9590 hc         1 643       0.043367
     53 H35          5.7530    -3.7220     2.2760 hc         1 643       0.043367
     54 H35A         6.1410    -5.2620     1.5130 hc         1 643       0.043367
     55 H35B         7.1310    -3.8440     1.1760 hc         1 643       0.043367
     56 H36          2.3520    -2.8880     0.5860 h1         1 643       0.046200
     57 H36A         2.2680    -1.3100     1.3670 h1         1 643       0.046200
     58 H38         -2.0120     2.1210    -2.1790 hc         1 643       0.046033
     59 H38A        -1.3940     0.9720    -3.3510 hc         1 643       0.046033
     60 H38B        -3.0190     0.7790    -2.6870 hc         1 643       0.046033
     61 C10         -7.0720    -2.5310     0.5220 c3         1 643       0.075900
     62 C38         -1.9950     1.0640    -2.4470 c3         1 643      -0.047800
@<TRIPOS>BOND
     1     1     3 ar  
     2     1    11 ar  
     3     1    37 1   
     4     2     3 1   
     5     2    15 2   
     6     2    16 1   
     7     3     4 ar  
     8     4    13 ar  
     9     4    14 1   
    10     5    19 ar  
    11     5    20 ar  
    12     5    41 1   
    13     6    20 ar  
    14     6    21 ar  
    15     6    62 1   
    16     7     8 ar  
    17     7     9 ar  
    18     7    27 1   
    19     8    24 ar  
    20     8    31 1   
    21     9    26 ar  
    22     9    36 1   
    23    10    27 1   
    24    10    28 2   
    25    10    35 1   
    26    11    12 ar  
    27    11    42 1   
    28    12    13 ar  
    29    12    20 1   
    30    13    43 1   
    31    14    15 1   
    32    14    61 1   
    33    15    44 1   
    34    16    17 1   
    35    16    18 1   
    36    19    22 ar  
    37    19    45 1   
    38    21    22 ar  
    39    21    46 1   
    40    22    23 1   
    41    23    35 1   
    42    24    25 ar  
    43    24    47 1   
    44    25    26 ar  
    45    26    48 1   
    46    27    30 2   
    47    28    29 1   
    48    28    32 1   
    49    29    30 1   
    50    32    33 1   
    51    32    34 1   
    52    32    49 1   
    53    33    50 1   
    54    33    51 1   
    55    33    52 1   
    56    34    53 1   
    57    34    54 1   
    58    34    55 1   
    59    35    56 1   
    60    35    57 1   
    61    38    61 1   
    62    39    61 1   
    63    40    61 1   
    64    58    62 1   
    65    59    62 1   
    66    60    62 1   
@<TRIPOS>SUBSTRUCTURE
     1 643         1 TEMP              0 ****  ****    0 ROOT
