@<TRIPOS>MOLECULE
643
   62    66     1     0     0
SMALL
No Charge or Current Charge


@<TRIPOS>ATOM
      1 C4          -5.6140     1.8310     0.5550 ca         1 643      -0.031000
      2 C5          -7.9260     0.6530     0.6580 cc         1 643      -0.163400
      3 C6          -6.4910     0.7350     0.5060 ca         1 643      -0.053800
      4 C7          -6.0330    -0.5380     0.2880 ca         1 643      -0.077200
      5 C15         -1.6410    -0.9380     0.7700 ca         1 643      -0.074000
      6 C17         -1.5010     0.6910    -1.0420 ca         1 643      -0.029300
      7 C21          4.1890     0.9690    -0.7310 ca         1 643      -0.079500
      8 C22          3.5970     1.6790     0.3450 ca         1 643       0.090000
      9 C26          4.2820     1.6500    -1.9710 ca         1 643       0.090000
     10 C28          4.0600    -1.5020     0.0100 cc         1 643      -0.201300
     11 C1          -4.2370     1.5890     0.3680 ca         1 643      -0.164000
     12 C2          -3.7410     0.2750     0.1290 cp         1 643      -0.058000
     13 C3          -4.6660    -0.8010     0.1000 ca         1 643      -0.129000
     14 N8          -7.0870    -1.4390     0.2900 na         1 643      -0.110700
     15 C9          -8.2640    -0.6940     0.5210 cd         1 643      -0.158100
     16 C11         -8.9060     1.7480     0.9120 c          1 643       0.732200
     17 O12         -8.5090     2.8990     1.0160 o          1 643      -0.729500
     18 O13        -10.0900     1.4550     1.0090 o          1 643      -0.729500
     19 C14         -0.2700    -1.2120     0.6470 ca         1 643      -0.202000
     20 C16         -2.2800     0.0180    -0.0560 cp         1 643      -0.027000
     21 C18         -0.1250     0.4090    -1.1550 ca         1 643      -0.153000
     22 C19          0.4940    -0.5310    -0.3190 ca         1 643       0.115100
     23 O20          1.8440    -0.7450    -0.4850 os         1 643      -0.352100
     24 C23          3.0920     2.9780     0.1240 ca         1 643       0.351900
     25 N24          3.1500     3.6120    -1.0720 nb         1 643      -0.638000
     26 C25          3.7430     2.9480    -2.0930 ca         1 643       0.351900
     27 C27          4.7300    -0.3900    -0.5720 cc         1 643       0.337500
     28 C29          5.0070    -2.4760     0.0460 cd         1 643       0.201300
     29 O30          6.1860    -2.0090    -0.4660 os         1 643      -0.068700
     30 N31          5.9990    -0.6440    -0.8570 nd         1 643      -0.336300
     31 Cl32         3.6050     1.0620     2.0010 cl         1 643      -0.166000
     32 C33          4.9310    -3.9100     0.5210 c3         1 643      -0.099000
     33 C34          5.0530    -4.9000    -0.6580 c3         1 643      -0.087600
     34 C35          5.9750    -4.2000     1.6230 c3         1 643      -0.087600
     35 C36          2.6010    -1.6000     0.3860 c3         1 643       0.245900
     36 Cl37         4.9630     0.8840    -3.4130 cl         1 643      -0.166000
     37 H4          -5.9760     2.8390     0.7360 ha         1 643       0.148000
     38 H10         -6.2970    -3.3070     0.8660 h1         1 643       0.031700
     39 H10A        -7.9280    -3.3690     0.1360 h1         1 643       0.031700
     40 H10B        -6.4980    -3.0780    -0.8980 h1         1 643       0.031700
     41 H15         -2.2220    -1.4640     1.5240 ha         1 643       0.117000
     42 H1          -3.5440     2.4240     0.4200 ha         1 643       0.095000
     43 H3          -4.3170    -1.8160    -0.0730 ha         1 643       0.094000
     44 H9          -9.2420    -1.1630     0.5710 h4         1 643       0.214000
     45 H14          0.1760    -1.9510     1.3070 ha         1 643       0.106000
     46 H18          0.4750     0.9230    -1.9020 ha         1 643       0.116000
     47 H23          2.6480     3.5420     0.9440 h4         1 643       0.041100
     48 H25          3.7810     3.4710    -3.0470 h4         1 643       0.041100
     49 H33          3.9460    -4.0730     0.9750 hc         1 643       0.065700
     50 H34          6.0310    -4.8100    -1.1460 hc         1 643       0.043367
     51 H34A         4.9360    -5.9340    -0.3110 hc         1 643       0.043367
     52 H34B         4.2760    -4.7040    -1.4070 hc         1 643       0.043367
     53 H35          5.8510    -3.5070     2.4640 hc         1 643       0.043367
     54 H35A         5.8620    -5.2210     2.0060 hc         1 643       0.043367
     55 H35B         6.9960    -4.0910     1.2360 hc         1 643       0.043367
     56 H36          2.2650    -2.6380     0.2740 h1         1 643       0.046200
     57 H36A         2.4690    -1.3160     1.4360 h1         1 643       0.046200
     58 H38         -2.1560     2.6970    -1.5650 hc         1 643       0.046033
     59 H38A        -1.5180     1.7770    -2.9330 hc         1 643       0.046033
     60 H38B        -3.1240     1.4100    -2.3100 hc         1 643       0.046033
     61 C10         -6.9440    -2.8880     0.0860 c3         1 643       0.075900
     62 C38         -2.1090     1.6980    -2.0130 c3         1 643      -0.047800
@<TRIPOS>BOND
     1     1     3 ar  
     2     1    11 ar  
     3     1    37 1   
     4     2     3 1   
     5     2    15 2   
     6     2    16 1   
     7     3     4 ar  
     8     4    13 ar  
     9     4    14 1   
    10     5    19 ar  
    11     5    20 ar  
    12     5    41 1   
    13     6    20 ar  
    14     6    21 ar  
    15     6    62 1   
    16     7     8 ar  
    17     7     9 ar  
    18     7    27 1   
    19     8    24 ar  
    20     8    31 1   
    21     9    26 ar  
    22     9    36 1   
    23    10    27 1   
    24    10    28 2   
    25    10    35 1   
    26    11    12 ar  
    27    11    42 1   
    28    12    13 ar  
    29    12    20 1   
    30    13    43 1   
    31    14    15 1   
    32    14    61 1   
    33    15    44 1   
    34    16    17 1   
    35    16    18 1   
    36    19    22 ar  
    37    19    45 1   
    38    21    22 ar  
    39    21    46 1   
    40    22    23 1   
    41    23    35 1   
    42    24    25 ar  
    43    24    47 1   
    44    25    26 ar  
    45    26    48 1   
    46    27    30 2   
    47    28    29 1   
    48    28    32 1   
    49    29    30 1   
    50    32    33 1   
    51    32    34 1   
    52    32    49 1   
    53    33    50 1   
    54    33    51 1   
    55    33    52 1   
    56    34    53 1   
    57    34    54 1   
    58    34    55 1   
    59    35    56 1   
    60    35    57 1   
    61    38    61 1   
    62    39    61 1   
    63    40    61 1   
    64    58    62 1   
    65    59    62 1   
    66    60    62 1   
@<TRIPOS>SUBSTRUCTURE
     1 643         1 TEMP              0 ****  ****    0 ROOT
