@<TRIPOS>MOLECULE
644
   42    44     1     0     0
SMALL
abcg2


@<TRIPOS>ATOM
      1 O05          3.1600    -2.1640     0.3810 o          1 644      -0.723000
      2 C21          3.6780    -1.4400     1.2480 c          1 644       0.724600
      3 O06          3.8350    -1.7060     2.4550 o          1 644      -0.723000
      4 C15          4.2570    -0.1150     0.7670 ca         1 644      -0.162100
      5 C16          5.5300     0.2320     1.2180 ca         1 644      -0.089500
      6 C17          6.2250     1.3200     0.7120 ca         1 644      -0.211000
      7 C18          5.6250     2.1120    -0.2570 ca         1 644      -0.129000
      8 C19          4.3360     1.8250    -0.6750 ca         1 644      -0.202000
      9 C14          3.6350     0.7200    -0.1770 ca         1 644       0.377000
     10 N02          2.3560     0.5080    -0.6760 nu         1 644      -0.999500
     11 C10          1.2080     0.2440     0.0210 ca         1 644       0.410500
     12 C09          0.0180    -0.0610    -0.6960 ca         1 644      -0.276600
     13 C20          0.0210    -0.1290    -2.2070 c          1 644       0.747600
     14 O04         -0.9200    -0.7270    -2.7860 o          1 644      -0.750500
     15 O03          0.9630     0.4170    -2.8330 o          1 644      -0.750500
     16 C11          1.1840     0.3260     1.4190 ca         1 644      -0.236000
     17 C12          0.0090     0.0760     2.1000 ca         1 644      -0.040000
     18 C13         -1.1620    -0.2400     1.4400 ca         1 644      -0.236000
     19 C08         -1.1760    -0.2950     0.0410 ca         1 644       0.410500
     20 N01         -2.3180    -0.6330    -0.6330 nu         1 644      -0.999500
     21 C03         -3.6080    -0.7580    -0.1350 ca         1 644       0.377000
     22 C04         -4.3340    -1.8910    -0.5250 ca         1 644      -0.202000
     23 C05         -5.6350    -2.0980    -0.1000 ca         1 644      -0.129000
     24 C06         -6.2250    -1.1940     0.7730 ca         1 644      -0.211000
     25 C07         -5.5050    -0.0780     1.1750 ca         1 644      -0.089500
     26 C02         -4.2190     0.1870     0.7080 ca         1 644      -0.162100
     27 C01         -3.6120     1.5420     1.0510 c          1 644       0.724600
     28 O02         -3.0840     2.1620     0.1130 o          1 644      -0.723000
     29 O01         -3.7570     1.9310     2.2270 o          1 644      -0.723000
     30 H2           5.9990    -0.3960     1.9660 ha         1 644       0.097500
     31 H3           7.2230     1.5440     1.0670 ha         1 644       0.057000
     32 H4           6.1460     2.9660    -0.6710 ha         1 644       0.057000
     33 H5           3.8490     2.4690    -1.3990 ha         1 644       0.095500
     34 H6           2.1710     0.6790    -1.6670 hn         1 644       0.552500
     35 H8           2.0770     0.5840     1.9690 ha         1 644       0.105500
     36 H9           0.0050     0.1290     3.1830 ha         1 644       0.069000
     37 H10         -2.0590    -0.4430     2.0070 ha         1 644       0.105500
     38 H11         -2.1300    -0.8890    -1.6050 hn         1 644       0.552500
     39 H12         -3.8550    -2.6190    -1.1690 ha         1 644       0.095500
     40 H13         -6.1760    -2.9750    -0.4320 ha         1 644       0.057000
     41 H14         -7.2330    -1.3530     1.1340 ha         1 644       0.057000
     42 H15         -5.9660     0.6340     1.8480 ha         1 644       0.097500
@<TRIPOS>BOND
     1     1     2 1   
     2     2     3 1   
     3     2     4 1   
     4     4     5 ar  
     5     4     9 ar  
     6     5     6 ar  
     7     5    30 1   
     8     6     7 ar  
     9     6    31 1   
    10     7     8 ar  
    11     7    32 1   
    12     8     9 ar  
    13     8    33 1   
    14     9    10 1   
    15    10    11 1   
    16    10    34 1   
    17    11    12 ar  
    18    11    16 ar  
    19    12    13 1   
    20    12    19 ar  
    21    13    14 1   
    22    13    15 1   
    23    16    17 ar  
    24    16    35 1   
    25    17    18 ar  
    26    17    36 1   
    27    18    19 ar  
    28    18    37 1   
    29    19    20 1   
    30    20    21 1   
    31    20    38 1   
    32    21    22 ar  
    33    21    26 ar  
    34    22    23 ar  
    35    22    39 1   
    36    23    24 ar  
    37    23    40 1   
    38    24    25 ar  
    39    24    41 1   
    40    25    26 ar  
    41    25    42 1   
    42    26    27 1   
    43    27    28 1   
    44    27    29 1   
@<TRIPOS>SUBSTRUCTURE
     1 644         1 TEMP              0 ****  ****    0 ROOT
