@<TRIPOS>MOLECULE
644
   42    44     1     0     0
SMALL
No Charge or Current Charge


@<TRIPOS>ATOM
      1 O05          3.4640    -2.2910     0.4090 o          1 644      -0.723000
      2 C21          3.7750    -1.4190     1.2100 c          1 644       0.724600
      3 O06          3.7860    -1.5980     2.4210 o          1 644      -0.723000
      4 C15          4.4010    -0.1610     0.6870 ca         1 644      -0.162100
      5 C16          5.7490     0.1110     1.0090 ca         1 644      -0.089500
      6 C17          6.3950     1.2410     0.4830 ca         1 644      -0.211000
      7 C18          5.7050     2.1050    -0.3760 ca         1 644      -0.129000
      8 C19          4.3640     1.8430    -0.6960 ca         1 644      -0.202000
      9 C14          3.6960     0.7280    -0.1560 ca         1 644       0.377000
     10 N02          2.3600     0.5680    -0.5150 nu         1 644      -0.999500
     11 C10          1.1900     0.2860     0.1750 ca         1 644       0.410500
     12 C09          0.0160    -0.0360    -0.5300 ca         1 644      -0.276600
     13 C20          0.0230    -0.1100    -2.0260 c          1 644       0.747600
     14 O04         -0.6110    -1.0050    -2.5710 o          1 644      -0.750500
     15 O03          0.6610     0.7270    -2.6520 o          1 644      -0.750500
     16 C11          1.1740     0.3770     1.5760 ca         1 644      -0.236000
     17 C12          0.0050     0.1050     2.2920 ca         1 644      -0.040000
     18 C13         -1.1580    -0.2380     1.5970 ca         1 644      -0.236000
     19 C08         -1.1630    -0.2860     0.1940 ca         1 644       0.410500
     20 N01         -2.3270    -0.6370    -0.4740 nu         1 644      -0.999500
     21 C03         -3.6680    -0.7540    -0.1140 ca         1 644       0.377000
     22 C04         -4.3370    -1.9130    -0.5470 ca         1 644      -0.202000
     23 C05         -5.6830    -2.1360    -0.2170 ca         1 644      -0.129000
     24 C06         -6.3750    -1.1870     0.5460 ca         1 644      -0.211000
     25 C07         -5.7280    -0.0140     0.9640 ca         1 644      -0.089500
     26 C02         -4.3750     0.2190     0.6290 ca         1 644      -0.162100
     27 C01         -3.7470     1.5200     1.0310 c          1 644       0.724600
     28 O02         -3.4240     2.3050     0.1510 o          1 644      -0.723000
     29 O01         -3.7700     1.8180     2.2180 o          1 644      -0.723000
     30 H2           6.2990    -0.5680     1.6580 ha         1 644       0.097500
     31 H3           7.4340     1.4380     0.7340 ha         1 644       0.057000
     32 H4           6.2060     2.9760    -0.7920 ha         1 644       0.057000
     33 H5           3.8330     2.5240    -1.3550 ha         1 644       0.095500
     34 H6           2.1440     0.8340    -1.4850 hn         1 644       0.552500
     35 H8           2.0700     0.6620     2.1170 ha         1 644       0.105500
     36 H9           0.0000     0.1590     3.3790 ha         1 644       0.069000
     37 H10         -2.0590    -0.4680     2.1560 ha         1 644       0.105500
     38 H11         -2.1040    -0.9960    -1.4120 hn         1 644       0.552500
     39 H12         -3.8030    -2.6590    -1.1300 ha         1 644       0.095500
     40 H13         -6.1840    -3.0420    -0.5480 ha         1 644       0.057000
     41 H14         -7.4180    -1.3540     0.8050 ha         1 644       0.057000
     42 H15         -6.2800     0.7290     1.5360 ha         1 644       0.097500
@<TRIPOS>BOND
     1     1     2 1   
     2     2     3 1   
     3     2     4 1   
     4     4     5 ar  
     5     4     9 ar  
     6     5     6 ar  
     7     5    30 1   
     8     6     7 ar  
     9     6    31 1   
    10     7     8 ar  
    11     7    32 1   
    12     8     9 ar  
    13     8    33 1   
    14     9    10 1   
    15    10    11 1   
    16    10    34 1   
    17    11    12 ar  
    18    11    16 ar  
    19    12    13 1   
    20    12    19 ar  
    21    13    14 1   
    22    13    15 1   
    23    16    17 ar  
    24    16    35 1   
    25    17    18 ar  
    26    17    36 1   
    27    18    19 ar  
    28    18    37 1   
    29    19    20 1   
    30    20    21 1   
    31    20    38 1   
    32    21    22 ar  
    33    21    26 ar  
    34    22    23 ar  
    35    22    39 1   
    36    23    24 ar  
    37    23    40 1   
    38    24    25 ar  
    39    24    41 1   
    40    25    26 ar  
    41    25    42 1   
    42    26    27 1   
    43    27    28 1   
    44    27    29 1   
@<TRIPOS>SUBSTRUCTURE
     1 644         1 TEMP              0 ****  ****    0 ROOT
