@<TRIPOS>MOLECULE
645
   50    52     1     0     0
SMALL
No Charge or Current Charge


@<TRIPOS>ATOM
      1 O1           4.1170     0.7030     2.2890 oh         1 645      -0.515100
      2 C1           2.9050     0.1220     2.2390 cc         1 645       0.169100
      3 C2           2.0440     0.0600     1.1910 cd         1 645      -0.396600
      4 C3           2.3340     0.6540    -0.1320 c          1 645       0.647300
      5 O2           3.3640     1.3020    -0.2930 o          1 645      -0.568100
      6 C4           1.4050     0.3980    -1.2810 ca         1 645      -0.087600
      7 C5           0.7880     1.4660    -1.9670 ca         1 645       0.138000
      8 Cl1          1.0320     3.1410    -1.4690 cl         1 645      -0.165000
      9 C6          -0.0470     1.2100    -3.0680 ca         1 645      -0.019000
     10 C7          -0.2600    -0.1130    -3.5100 ca         1 645      -0.242500
     11 C8           0.3620    -1.1810    -2.8320 ca         1 645      -0.029000
     12 C9           1.1950    -0.9230    -1.7300 ca         1 645      -0.091000
     13 S1          -1.3050    -0.4370    -4.9460 sy         1 645       1.057500
     14 O3          -0.8210    -1.6490    -5.6190 o          1 645      -0.518500
     15 O4          -1.5050     0.8170    -5.6830 o          1 645      -0.518500
     16 C10         -2.8810    -0.8630    -4.2140 c3         1 645      -0.336100
     17 C11          0.9170    -0.6520     1.6660 cd         1 645       0.378500
     18 N1           1.0570    -1.0660     2.9130 nc         1 645      -0.502800
     19 N2           2.3010    -0.5800     3.2880 na         1 645       0.108800
     20 C12          2.8470    -0.8270     4.6670 c3         1 645       0.128000
     21 C13          1.8580    -1.6510     5.5470 c3         1 645      -0.101767
     22 C14          3.1000     0.5250     5.3880 c3         1 645      -0.101767
     23 C15          4.1740    -1.6270     4.5780 c3         1 645      -0.101767
     24 C16         -0.3270    -0.9580     0.9530 ca         1 645      -0.112500
     25 C17         -1.2520     0.0610     0.6400 ca         1 645       0.144000
     26 Cl2         -0.9550     1.7300     1.1200 cl         1 645      -0.171000
     27 C18         -2.4520    -0.2500    -0.0190 ca         1 645      -0.106000
     28 C19         -2.7420    -1.5800    -0.3570 ca         1 645       0.124000
     29 Cl3         -4.2680    -1.9740    -1.1370 cl         1 645      -0.189000
     30 C20         -1.8320    -2.6020    -0.0450 ca         1 645      -0.109000
     31 C21         -0.6290    -2.2930     0.6130 ca         1 645      -0.071000
     32 HO1          4.2420     1.1070     1.3960 ho         1 645       0.532000
     33 H6          -0.5160     2.0480    -3.5790 ha         1 645       0.157000
     34 H8           0.2140    -2.2090    -3.1600 ha         1 645       0.138000
     35 H9           1.6850    -1.7540    -1.2260 ha         1 645       0.129000
     36 H101        -3.5950    -1.0490    -5.0230 h1         1 645       0.105033
     37 H102        -2.7390    -1.7640    -3.6090 h1         1 645       0.105033
     38 H103        -3.2090    -0.0240    -3.5910 h1         1 645       0.105033
     39 H131         2.2710    -1.8210     6.5480 hc         1 645       0.052700
     40 H132         0.9030    -1.1250     5.6670 hc         1 645       0.052700
     41 H133         1.6560    -2.6320     5.1010 hc         1 645       0.052700
     42 H141         2.1790     1.1190     5.4320 hc         1 645       0.052700
     43 H142         3.4480     0.3630     6.4150 hc         1 645       0.052700
     44 H143         3.8620     1.1220     4.8740 hc         1 645       0.052700
     45 H151         4.0210    -2.5730     4.0440 hc         1 645       0.052700
     46 H152         4.9520    -1.0640     4.0500 hc         1 645       0.052700
     47 H153         4.5590    -1.8620     5.5780 hc         1 645       0.052700
     48 H18         -3.1650     0.5360    -0.2480 ha         1 645       0.146000
     49 H20         -2.0640    -3.6320    -0.3020 ha         1 645       0.137000
     50 H21          0.0690    -3.0900     0.8640 ha         1 645       0.132000
@<TRIPOS>BOND
     1     1     2 1   
     2     1    32 1   
     3     2     3 2   
     4     2    19 1   
     5     3     4 1   
     6     3    17 1   
     7     4     5 2   
     8     4     6 1   
     9     6     7 ar  
    10     6    12 ar  
    11     7     8 1   
    12     7     9 ar  
    13     9    10 ar  
    14     9    33 1   
    15    10    11 ar  
    16    10    13 1   
    17    11    12 ar  
    18    11    34 1   
    19    12    35 1   
    20    13    14 2   
    21    13    15 2   
    22    13    16 1   
    23    16    36 1   
    24    16    37 1   
    25    16    38 1   
    26    17    18 2   
    27    17    24 1   
    28    18    19 1   
    29    19    20 1   
    30    20    21 1   
    31    20    22 1   
    32    20    23 1   
    33    21    39 1   
    34    21    40 1   
    35    21    41 1   
    36    22    42 1   
    37    22    43 1   
    38    22    44 1   
    39    23    45 1   
    40    23    46 1   
    41    23    47 1   
    42    24    25 ar  
    43    24    31 ar  
    44    25    26 1   
    45    25    27 ar  
    46    27    28 ar  
    47    27    48 1   
    48    28    29 1   
    49    28    30 ar  
    50    30    31 ar  
    51    30    49 1   
    52    31    50 1   
@<TRIPOS>SUBSTRUCTURE
     1 645         1 TEMP              0 ****  ****    0 ROOT
