@<TRIPOS>MOLECULE
645
   50    52     1     0     0
SMALL
bcc


@<TRIPOS>ATOM
      1 O1           4.0440     0.6860     2.3290 oh         1 645      -0.476100
      2 C1           2.8510     0.1440     2.2480 cc         1 645       0.219800
      3 C2           1.9580     0.1440     1.1730 cd         1 645      -0.461900
      4 C3           2.2930     0.7440    -0.0850 c          1 645       0.647300
      5 O2           3.3160     1.4080    -0.2220 o          1 645      -0.568100
      6 C4           1.4070     0.4940    -1.2610 ca         1 645      -0.087600
      7 C5           0.8460     1.5250    -2.0080 ca         1 645       0.046400
      8 CL1          1.1040     3.1720    -1.5720 cl         1 645      -0.073400
      9 C6           0.0340     1.2540    -3.0980 ca         1 645      -0.037000
     10 C7          -0.1760    -0.0660    -3.4550 ca         1 645      -0.242500
     11 C8           0.3970    -1.1150    -2.7530 ca         1 645      -0.047000
     12 C9           1.1730    -0.8230    -1.6470 ca         1 645      -0.109000
     13 S1          -1.2040    -0.4330    -4.8620 sy         1 645       1.088300
     14 O3          -0.6380    -1.5990    -5.5330 o          1 645      -0.589300
     15 O4          -1.3980     0.7980    -5.6220 o          1 645      -0.589300
     16 C10         -2.7500    -0.9010    -4.1220 c3         1 645      -0.225300
     17 C11          0.8440    -0.5840     1.6720 cd         1 645       0.443800
     18 N1           1.0630    -0.9870     2.8950 nc         1 645      -0.502800
     19 N2           2.2930    -0.5450     3.2450 na         1 645       0.087400
     20 C12          2.8590    -0.8500     4.5820 c3         1 645       0.098700
     21 C13          1.8490    -1.6750     5.3710 c3         1 645      -0.101767
     22 C14          3.1260     0.4600     5.3240 c3         1 645      -0.101767
     23 C15          4.1390    -1.6670     4.4050 c3         1 645      -0.101767
     24 C16         -0.4210    -0.9310     1.0080 ca         1 645      -0.112500
     25 C17         -1.3190     0.0320     0.5550 ca         1 645       0.052400
     26 CL2         -0.9960     1.7080     0.8210 cl         1 645      -0.079400
     27 C18         -2.4980    -0.3110    -0.0880 ca         1 645      -0.124000
     28 C19         -2.7880    -1.6550    -0.2620 ca         1 645       0.032400
     29 CL3         -4.2630    -2.0980    -1.0460 cl         1 645      -0.097400
     30 C20         -1.9310    -2.6430     0.1920 ca         1 645      -0.127000
     31 C21         -0.7570    -2.2690     0.8250 ca         1 645      -0.089000
     32 HO1          4.2040     1.1590     1.4880 ho         1 645       0.493000
     33 H6          -0.4170     2.0650    -3.6540 ha         1 645       0.175000
     34 H8           0.2420    -2.1450    -3.0460 ha         1 645       0.156000
     35 H9           1.6230    -1.6310    -1.0860 ha         1 645       0.147000
     36 H101        -3.4250    -1.1780    -4.9320 h1         1 645       0.105033
     37 H102        -2.5920    -1.7510    -3.4640 h1         1 645       0.105033
     38 H103        -3.1590    -0.0580    -3.5690 h1         1 645       0.105033
     39 H131         2.2920    -1.9020     6.3410 hc         1 645       0.052700
     40 H132         0.9190    -1.1360     5.5450 hc         1 645       0.052700
     41 H133         1.6150    -2.6190     4.8810 hc         1 645       0.052700
     42 H141         2.2100     1.0440     5.4160 hc         1 645       0.052700
     43 H142         3.4830     0.2370     6.3290 hc         1 645       0.052700
     44 H143         3.8810     1.0750     4.8360 hc         1 645       0.052700
     45 H151         3.9340    -2.5930     3.8650 hc         1 645       0.052700
     46 H152         4.9180    -1.1230     3.8750 hc         1 645       0.052700
     47 H153         4.5330    -1.9350     5.3860 hc         1 645       0.052700
     48 H18         -3.1790     0.4560    -0.4270 ha         1 645       0.164000
     49 H20         -2.1700    -3.6890     0.0560 ha         1 645       0.155000
     50 H21         -0.0740    -3.0340     1.1700 ha         1 645       0.150000
@<TRIPOS>BOND
     1     1     2 1   
     2     1    32 1   
     3     2     3 2   
     4     2    19 1   
     5     3     4 1   
     6     3    17 1   
     7     4     5 2   
     8     4     6 1   
     9     6     7 ar  
    10     6    12 ar  
    11     7     8 1   
    12     7     9 ar  
    13     9    10 ar  
    14     9    33 1   
    15    10    11 ar  
    16    10    13 1   
    17    11    12 ar  
    18    11    34 1   
    19    12    35 1   
    20    13    14 2   
    21    13    15 2   
    22    13    16 1   
    23    16    36 1   
    24    16    37 1   
    25    16    38 1   
    26    17    18 2   
    27    17    24 1   
    28    18    19 1   
    29    19    20 1   
    30    20    21 1   
    31    20    22 1   
    32    20    23 1   
    33    21    39 1   
    34    21    40 1   
    35    21    41 1   
    36    22    42 1   
    37    22    43 1   
    38    22    44 1   
    39    23    45 1   
    40    23    46 1   
    41    23    47 1   
    42    24    25 ar  
    43    24    31 ar  
    44    25    26 1   
    45    25    27 ar  
    46    27    28 ar  
    47    27    48 1   
    48    28    29 1   
    49    28    30 ar  
    50    30    31 ar  
    51    30    49 1   
    52    31    50 1   
@<TRIPOS>SUBSTRUCTURE
     1 645         1 TEMP              0 ****  ****    0 ROOT
