@<TRIPOS>MOLECULE
646
   56    59     1     0     0
SMALL
No Charge or Current Charge


@<TRIPOS>ATOM
      1 CAA         -3.9280     3.1560    -1.2140 c3         1 646      -0.130400
      2 CAB         -2.8290    -0.0130     2.7200 c3         1 646      -0.034800
      3 CAC         -1.3750     2.7450     2.9210 c3         1 646       0.071900
      4 OAD         -4.6540    -2.1280     0.4990 o          1 646      -0.529500
      5 OAE         -4.2990    -1.3940    -1.9130 o          1 646      -0.529500
      6 CAH          4.3070    -2.7130     0.5450 ca         1 646       0.389900
      7 CAI          2.9120    -2.7380     0.4120 ca         1 646      -0.207000
      8 CAJ         -0.1110    -2.3680     0.7110 ca         1 646      -0.128000
      9 CAK          0.0930    -0.6710    -0.9830 ca         1 646      -0.128000
     10 CAL          3.0000    -0.3950    -0.0750 ca         1 646      -0.222000
     11 CAM          7.4900     1.8300     0.2390 c6         1 646       0.137800
     12 CAN          5.8860     2.7980    -1.3370 c6         1 646       0.137800
     13 CAO          6.3830     0.9140     0.8550 c6         1 646       0.177800
     14 CAP          4.7350     1.9080    -0.7640 c6         1 646       0.177800
     15 NAQ          5.0420    -1.5950     0.3810 nb         1 646      -0.740000
     16 NAR         -2.5480     3.2210     0.8050 nc         1 646      -0.517800
     17 NAS          6.9460     3.0960    -0.3310 n7         1 646      -0.838400
     18 NAT         -4.3790     0.2550    -0.1080 nu         1 646      -0.867100
     19 CAU         -3.3490     2.5230     0.0250 cd         1 646       0.280300
     20 CAV         -2.8940     1.0910     1.6940 cc         1 646      -0.094300
     21 CAW         -1.5100    -2.3450     0.5870 ca         1 646       0.207000
     22 CAX         -1.3020    -0.6330    -1.1260 ca         1 646       0.207000
     23 CAY          2.2110    -1.5550     0.0920 cp         1 646       0.024000
     24 CAZ          0.7210    -1.5280    -0.0570 cp         1 646       0.025000
     25 CBA          4.3980    -0.4560     0.0770 ca         1 646       0.623900
     26 CBB         -3.5730     1.2000     0.5090 cd         1 646       0.083000
     27 CBC         -2.1360    -1.4510    -0.3220 ca         1 646      -0.233500
     28 NBD          5.2350     0.6680    -0.0840 nh         1 646      -0.775300
     29 NBE         -2.2620     2.3310     1.8220 na         1 646       0.136800
     30 SBF         -3.9360    -1.3300    -0.4960 sy         1 646       1.157600
     31 HAA         -4.1880     2.4060    -1.9690 hc         1 646       0.056700
     32 HAAA        -4.8370     3.7170    -0.9710 hc         1 646       0.056700
     33 HAAB        -3.2150     3.8510    -1.6720 hc         1 646       0.056700
     34 HAB         -2.9690     0.3860     3.7320 hc         1 646       0.056700
     35 HABA        -3.6130    -0.7600     2.5600 hc         1 646       0.056700
     36 HABB        -1.8570    -0.5170     2.6930 hc         1 646       0.056700
     37 HAC         -1.9630     2.8680     3.8370 h1         1 646       0.057700
     38 HACA        -0.6080     1.9770     3.0800 h1         1 646       0.057700
     39 HACB        -0.8860     3.6950     2.6740 h1         1 646       0.057700
     40 HAH          4.8550    -3.6220     0.7870 h4         1 646       0.020100
     41 HAI          2.3880    -3.6790     0.5450 ha         1 646       0.131000
     42 HAJ          0.3340    -3.0480     1.4320 ha         1 646       0.138000
     43 HAK          0.6980    -0.0310    -1.6190 ha         1 646       0.138000
     44 HAL          2.5190     0.5510    -0.2940 ha         1 646       0.122000
     45 HAM          8.2400     2.0610     1.0110 h1         1 646       0.064200
     46 HAMA         8.0070     1.2690    -0.5540 h1         1 646       0.064200
     47 HAN          6.3380     2.2770    -2.1940 h1         1 646       0.064200
     48 HANA         5.4600     3.7380    -1.7190 h1         1 646       0.064200
     49 HAO          6.8650    -0.0270     1.1570 h1         1 646       0.050700
     50 HAOA         6.0070     1.3870     1.7750 h1         1 646       0.050700
     51 HAP          4.1440     2.5060    -0.0540 h1         1 646       0.050700
     52 HAPA         4.0720     1.6440    -1.6000 h1         1 646       0.050700
     53 HNAS         6.5170     3.6320     0.4350 hn         1 646       0.403000
     54 HNAT        -4.8330     0.5640    -0.9590 hn         1 646       0.502000
     55 ClF         -2.3680    -3.4960     1.6140 cl         1 646      -0.144000
     56 ClG         -1.9160     0.4690    -2.3620 cl         1 646      -0.144000
@<TRIPOS>BOND
     1     1    19 1   
     2     1    31 1   
     3     1    32 1   
     4     1    33 1   
     5     2    20 1   
     6     2    34 1   
     7     2    35 1   
     8     2    36 1   
     9     3    29 1   
    10     3    37 1   
    11     3    38 1   
    12     3    39 1   
    13     4    30 2   
    14     5    30 2   
    15     6     7 ar  
    16     6    15 ar  
    17     6    40 1   
    18     7    23 ar  
    19     7    41 1   
    20     8    21 ar  
    21     8    24 ar  
    22     8    42 1   
    23     9    22 ar  
    24     9    24 ar  
    25     9    43 1   
    26    10    23 ar  
    27    10    25 ar  
    28    10    44 1   
    29    11    13 1   
    30    11    17 1   
    31    11    45 1   
    32    11    46 1   
    33    12    14 1   
    34    12    17 1   
    35    12    47 1   
    36    12    48 1   
    37    13    28 1   
    38    13    49 1   
    39    13    50 1   
    40    14    28 1   
    41    14    51 1   
    42    14    52 1   
    43    15    25 ar  
    44    16    19 2   
    45    16    29 1   
    46    17    53 1   
    47    18    26 1   
    48    18    30 1   
    49    18    54 1   
    50    19    26 1   
    51    20    26 2   
    52    20    29 1   
    53    21    27 ar  
    54    21    55 1   
    55    22    27 ar  
    56    22    56 1   
    57    23    24 1   
    58    25    28 1   
    59    27    30 1   
@<TRIPOS>SUBSTRUCTURE
     1 646         1 TEMP              0 ****  ****    0 ROOT
