@<TRIPOS>MOLECULE
646
   56    59     1     0     0
SMALL
bcc


@<TRIPOS>ATOM
      1 CAA         -5.6250     2.2650    -0.7470 c3         1 646      -0.130400
      2 CAB         -1.7030     0.8100     2.2020 c3         1 646      -0.034800
      3 CAC         -1.7820     3.8230     1.7410 c3         1 646       0.042600
      4 OAD         -4.2590    -2.4200    -0.7490 o          1 646      -0.600300
      5 OAE         -3.9400    -0.3200    -2.0180 o          1 646      -0.600300
      6 CAH          4.2290    -2.8930     0.4670 ca         1 646       0.455200
      7 CAI          2.8660    -2.8330     0.2520 ca         1 646      -0.290300
      8 CAJ         -0.0430    -2.2420     0.5400 ca         1 646      -0.146000
      9 CAK          0.3430    -0.4280    -0.9660 ca         1 646      -0.146000
     10 CAL          3.1270    -0.4570     0.0870 ca         1 646      -0.305300
     11 CAM          7.7160     1.2020     0.2310 c6         1 646       0.137800
     12 CAN          6.0100     2.6490    -0.5720 c6         1 646       0.137800
     13 CAO          6.6800     0.3150     0.9060 c6         1 646       0.177800
     14 CAP          4.9250     1.7870     0.0670 c6         1 646       0.177800
     15 NAQ          5.0310    -1.8400     0.4820 nb         1 646      -0.740000
     16 NAR         -3.7240     3.2800     0.4300 nc         1 646      -0.517800
     17 NAS          7.2960     2.5850     0.0950 n7         1 646      -0.783200
     18 NAT         -4.1710    -0.2880     0.5620 nu         1 646      -0.673500
     19 CAU         -4.4030     2.2010     0.1010 cd         1 646       0.345600
     20 CAV         -2.7030     1.5330     1.3770 cc         1 646      -0.043600
     21 CAW         -1.4040    -2.0990     0.3550 ca         1 646       0.115400
     22 CAX         -1.0220    -0.2870    -1.1580 ca         1 646       0.115400
     23 CAY          2.3040    -1.5690     0.0660 cp         1 646       0.024000
     24 CAZ          0.8490    -1.4160    -0.1320 cp         1 646       0.025000
     25 CBA          4.5150    -0.6260     0.2730 ca         1 646       0.689200
     26 CBB         -3.7990     1.0640     0.6760 cd         1 646      -0.120700
     27 CBC         -1.9300    -1.1480    -0.5300 ca         1 646      -0.233500
     28 NBD          5.3900     0.4240     0.2370 nh         1 646      -0.775300
     29 NBE         -2.6970     2.8600     1.1800 na         1 646       0.115400
     30 SBF         -3.7020    -1.0830    -0.8100 sy         1 646       1.299200
     31 HAA         -5.4240     1.9090    -1.7570 hc         1 646       0.056700
     32 HAAA        -6.4220     1.6450    -0.3370 hc         1 646       0.056700
     33 HAAB        -5.9930     3.2880    -0.8160 hc         1 646       0.056700
     34 HAB         -1.5320     1.3080     3.1560 hc         1 646       0.056700
     35 HABA        -2.0550    -0.1970     2.4110 hc         1 646       0.056700
     36 HABB        -0.7390     0.7320     1.6960 hc         1 646       0.056700
     37 HAC         -2.1440     4.2060     2.6950 h1         1 646       0.057700
     38 HACA        -0.8090     3.3640     1.8940 h1         1 646       0.057700
     39 HACB        -1.6700     4.6490     1.0450 h1         1 646       0.057700
     40 HAH          4.7050    -3.8540     0.6340 h4         1 646       0.020100
     41 HAI          2.2730    -3.7360     0.2210 ha         1 646       0.149000
     42 HAJ          0.3200    -2.9830     1.2400 ha         1 646       0.156000
     43 HAK          1.0140     0.2370    -1.4910 ha         1 646       0.156000
     44 HAL          2.6930     0.5280     0.0060 ha         1 646       0.140000
     45 HAM          8.6450     1.1590     0.8010 h1         1 646       0.064200
     46 HAMA         7.9300     0.8070    -0.7670 h1         1 646       0.064200
     47 HAN          6.1470     2.3280    -1.6090 h1         1 646       0.064200
     48 HANA         5.6650     3.6840    -0.5990 h1         1 646       0.064200
     49 HAO          7.0060    -0.7220     0.8890 h1         1 646       0.050700
     50 HAOA         6.5770     0.6120     1.9590 h1         1 646       0.050700
     51 HAP          4.6190     2.2190     1.0300 h1         1 646       0.050700
     52 HAPA         4.0570     1.8090    -0.5910 h1         1 646       0.050700
     53 HNAS         7.2150     3.0000     1.0170 hn         1 646       0.347800
     54 HNAT        -5.0980    -0.5590     0.8740 hn         1 646       0.446800
     55 CLF         -2.4050    -3.0850     1.3540 cl         1 646      -0.052400
     56 CLG         -1.4870     1.0420    -2.1490 cl         1 646      -0.052400
@<TRIPOS>BOND
     1     1    19 1   
     2     1    31 1   
     3     1    32 1   
     4     1    33 1   
     5     2    20 1   
     6     2    34 1   
     7     2    35 1   
     8     2    36 1   
     9     3    29 1   
    10     3    37 1   
    11     3    38 1   
    12     3    39 1   
    13     4    30 2   
    14     5    30 2   
    15     6     7 ar  
    16     6    15 ar  
    17     6    40 1   
    18     7    23 ar  
    19     7    41 1   
    20     8    21 ar  
    21     8    24 ar  
    22     8    42 1   
    23     9    22 ar  
    24     9    24 ar  
    25     9    43 1   
    26    10    23 ar  
    27    10    25 ar  
    28    10    44 1   
    29    11    13 1   
    30    11    17 1   
    31    11    45 1   
    32    11    46 1   
    33    12    14 1   
    34    12    17 1   
    35    12    47 1   
    36    12    48 1   
    37    13    28 1   
    38    13    49 1   
    39    13    50 1   
    40    14    28 1   
    41    14    51 1   
    42    14    52 1   
    43    15    25 ar  
    44    16    19 2   
    45    16    29 1   
    46    17    53 1   
    47    18    26 1   
    48    18    30 1   
    49    18    54 1   
    50    19    26 1   
    51    20    26 2   
    52    20    29 1   
    53    21    27 ar  
    54    21    55 1   
    55    22    27 ar  
    56    22    56 1   
    57    23    24 1   
    58    25    28 1   
    59    27    30 1   
@<TRIPOS>SUBSTRUCTURE
     1 646         1 TEMP              0 ****  ****    0 ROOT
