@<TRIPOS>MOLECULE
647
   45    48     1     0     0
SMALL
bcc


@<TRIPOS>ATOM
      1 C1           5.6190     2.6260     0.7900 ca         1 647      -0.281300
      2 C3           6.5190     2.8530    -0.2570 ca         1 647       0.423200
      3 N5           6.9700     1.9070    -1.0700 nb         1 647      -0.686000
      4 C6           5.1440     1.3460     1.0260 ca         1 647      -0.039000
      5 N8           6.8220    -0.4370    -1.5170 na         1 647      -0.278100
      6 C10          6.1500    -1.4970    -0.9680 cc         1 647      -0.101100
      7 C12          5.3850    -1.0850     0.0850 cd         1 647      -0.132400
      8 C13          5.5960     0.3270     0.1930 ca         1 647      -0.196100
      9 C14          6.5050     0.6920    -0.8290 ca         1 647       0.435800
     10 C15          4.4870    -1.9230     0.9360 c3         1 647       0.060100
     11 C18          3.0290    -1.6050     0.7300 ca         1 647      -0.246600
     12 C19          2.2480    -1.0450     1.7270 ca         1 647       0.451200
     13 N21          0.9610    -0.7430     1.6020 nb         1 647      -0.743000
     14 C22          0.3550    -0.9930     0.4440 ca         1 647       0.664200
     15 C23          1.0460    -1.5650    -0.6390 ca         1 647      -0.310300
     16 C25          2.3830    -1.8590    -0.4800 ca         1 647      -0.046000
     17 N27         -0.9620    -0.6400     0.3630 nu         1 647      -0.865900
     18 C29         -1.8270    -1.1350    -0.6870 c3         1 647       0.264100
     19 C32         -3.2240    -0.6250    -0.4710 ca         1 647      -0.079300
     20 C33         -3.5960     0.6360    -0.9240 ca         1 647      -0.117500
     21 C35         -4.8740     1.1240    -0.6970 ca         1 647      -0.081000
     22 C37         -5.7930     0.3500     0.0010 ca         1 647      -0.188300
     23 C38         -5.4330    -0.9110     0.4600 ca         1 647      -0.081000
     24 C40         -4.1540    -1.3900     0.2240 ca         1 647      -0.117500
     25 C42         -7.1900     0.8380     0.2210 c3         1 647       0.719200
     26 F43         -7.2940     2.1660     0.1080 f          1 647      -0.234300
     27 F44         -8.0460     0.3080    -0.6680 f          1 647      -0.234300
     28 F45         -7.6520     0.5100     1.4350 f          1 647      -0.234300
     29 H1           5.3050     3.4560     1.4080 ha         1 647       0.140000
     30 H2           6.8890     3.8560    -0.4360 h4         1 647       0.017100
     31 H3           4.4490     1.1550     1.8340 ha         1 647       0.139000
     32 H4           7.4450    -0.4840    -2.3060 hn         1 647       0.310700
     33 H5           6.2680    -2.4890    -1.3760 h4         1 647       0.163000
     34 H6           4.6680    -2.9780     0.7150 hc         1 647       0.050200
     35 H7           4.7370    -1.7880     1.9920 hc         1 647       0.050200
     36 H8           2.6900    -0.8270     2.6960 h4         1 647       0.013100
     37 H9           0.5510    -1.7780    -1.5760 ha         1 647       0.138000
     38 H10          2.9320    -2.2960    -1.3070 ha         1 647       0.132000
     39 H11         -1.3980    -0.4710     1.2570 hn         1 647       0.435800
     40 H12         -1.4610    -0.7880    -1.6570 h1         1 647       0.047700
     41 H13         -1.8350    -2.2310    -0.7250 h1         1 647       0.047700
     42 H14         -2.8850     1.2450    -1.4690 ha         1 647       0.143000
     43 H15         -5.1350     2.1050    -1.0690 ha         1 647       0.151000
     44 H16         -6.1350    -1.5290     1.0040 ha         1 647       0.151000
     45 H17         -3.8810    -2.3740     0.5860 ha         1 647       0.143000
@<TRIPOS>BOND
     1     1     2 ar  
     2     1     4 ar  
     3     1    29 1   
     4     2     3 ar  
     5     2    30 1   
     6     3     9 ar  
     7     4     8 ar  
     8     4    31 1   
     9     5     6 1   
    10     5     9 1   
    11     5    32 1   
    12     6     7 2   
    13     6    33 1   
    14     7     8 1   
    15     7    10 1   
    16     8     9 ar  
    17    10    11 1   
    18    10    34 1   
    19    10    35 1   
    20    11    12 ar  
    21    11    16 ar  
    22    12    13 ar  
    23    12    36 1   
    24    13    14 ar  
    25    14    15 ar  
    26    14    17 1   
    27    15    16 ar  
    28    15    37 1   
    29    16    38 1   
    30    17    18 1   
    31    17    39 1   
    32    18    19 1   
    33    18    40 1   
    34    18    41 1   
    35    19    20 ar  
    36    19    24 ar  
    37    20    21 ar  
    38    20    42 1   
    39    21    22 ar  
    40    21    43 1   
    41    22    23 ar  
    42    22    25 1   
    43    23    24 ar  
    44    23    44 1   
    45    24    45 1   
    46    25    26 1   
    47    25    27 1   
    48    25    28 1   
@<TRIPOS>SUBSTRUCTURE
     1 647         1 TEMP              0 ****  ****    0 ROOT
