@<TRIPOS>MOLECULE
647
   45    48     1     0     0
SMALL
No Charge or Current Charge


@<TRIPOS>ATOM
      1 C1           5.3880     2.6650     0.4790 ca         1 647      -0.198000
      2 C3           6.3430     2.8480    -0.5460 ca         1 647       0.357900
      3 N5           6.9200     1.8190    -1.2200 nb         1 647      -0.686000
      4 C6           5.0000     1.3600     0.8340 ca         1 647      -0.021000
      5 N8           6.9420    -0.6430    -1.3670 na         1 647      -0.328400
      6 C10          6.2900    -1.7140    -0.7170 cc         1 647      -0.151100
      7 C12          5.4580    -1.1080     0.2120 cd         1 647      -0.132400
      8 C13          5.6130     0.3250     0.1190 ca         1 647      -0.130800
      9 C14          6.5370     0.5770    -0.8680 ca         1 647       0.370500
     10 C15          4.5290    -1.8280     1.1570 c3         1 647       0.060100
     11 C18          3.0580    -1.5920     0.8440 ca         1 647      -0.181300
     12 C19          2.1890    -1.0530     1.8150 ca         1 647       0.385900
     13 N21          0.8760    -0.8190     1.5920 nb         1 647      -0.743000
     14 C22          0.4050    -1.1210     0.3850 ca         1 647       0.598900
     15 C23          1.1740    -1.6630    -0.6540 ca         1 647      -0.227000
     16 C25          2.5360    -1.9060    -0.4230 ca         1 647      -0.028000
     17 N27         -0.9250    -0.8410     0.2860 nu         1 647      -0.921100
     18 C29         -1.7800    -0.9380    -0.8990 c3         1 647       0.264100
     19 C32         -3.1970    -0.4940    -0.5590 ca         1 647      -0.079300
     20 C33         -3.5770     0.8530    -0.7100 ca         1 647      -0.099500
     21 C35         -4.8840     1.2640    -0.3970 ca         1 647      -0.063000
     22 C37         -5.8330     0.3340     0.0810 ca         1 647      -0.188300
     23 C38         -5.4500    -1.0170     0.2240 ca         1 647      -0.063000
     24 C40         -4.1420    -1.4250    -0.0900 ca         1 647      -0.099500
     25 C42         -7.2620     0.7800     0.4130 c3         1 647       0.355300
     26 F43         -7.3160     2.0630     0.8370 f          1 647      -0.113000
     27 F44         -8.0690     0.6870    -0.6680 f          1 647      -0.113000
     28 F45         -7.8220     0.0280     1.3890 f          1 647      -0.113000
     29 H1           4.9600     3.5270     0.9830 ha         1 647       0.122000
     30 H2           6.6570     3.8510    -0.8350 h4         1 647       0.017100
     31 H3           4.2680     1.1700     1.6160 ha         1 647       0.121000
     32 H4           7.6250    -0.7350    -2.1090 hn         1 647       0.361000
     33 H5           6.4580    -2.7610    -0.9580 h4         1 647       0.213000
     34 H6           4.7350    -2.9050     1.1270 hc         1 647       0.050200
     35 H7           4.7530    -1.5170     2.1850 hc         1 647       0.050200
     36 H8           2.5570    -0.7970     2.8090 h4         1 647       0.013100
     37 H9           0.7300    -1.8900    -1.6170 ha         1 647       0.120000
     38 H10          3.1670    -2.3240    -1.2050 ha         1 647       0.114000
     39 H11         -1.3160    -0.4330     1.1290 hn         1 647       0.491000
     40 H12         -1.3820    -0.3050    -1.7040 h1         1 647       0.047700
     41 H13         -1.8000    -1.9730    -1.2680 h1         1 647       0.047700
     42 H14         -2.8570     1.5840    -1.0730 ha         1 647       0.125000
     43 H15         -5.1540     2.3100    -0.5300 ha         1 647       0.133000
     44 H16         -6.1640    -1.7590     0.5790 ha         1 647       0.133000
     45 H17         -3.8620    -2.4700     0.0320 ha         1 647       0.125000
@<TRIPOS>BOND
     1     1     2 ar  
     2     1     4 ar  
     3     1    29 1   
     4     2     3 ar  
     5     2    30 1   
     6     3     9 ar  
     7     4     8 ar  
     8     4    31 1   
     9     5     6 1   
    10     5     9 1   
    11     5    32 1   
    12     6     7 2   
    13     6    33 1   
    14     7     8 1   
    15     7    10 1   
    16     8     9 ar  
    17    10    11 1   
    18    10    34 1   
    19    10    35 1   
    20    11    12 ar  
    21    11    16 ar  
    22    12    13 ar  
    23    12    36 1   
    24    13    14 ar  
    25    14    15 ar  
    26    14    17 1   
    27    15    16 ar  
    28    15    37 1   
    29    16    38 1   
    30    17    18 1   
    31    17    39 1   
    32    18    19 1   
    33    18    40 1   
    34    18    41 1   
    35    19    20 ar  
    36    19    24 ar  
    37    20    21 ar  
    38    20    42 1   
    39    21    22 ar  
    40    21    43 1   
    41    22    23 ar  
    42    22    25 1   
    43    23    24 ar  
    44    23    44 1   
    45    24    45 1   
    46    25    26 1   
    47    25    27 1   
    48    25    28 1   
@<TRIPOS>SUBSTRUCTURE
     1 647         1 TEMP              0 ****  ****    0 ROOT
