@<TRIPOS>MOLECULE
648
   36    38     1     0     0
SMALL
No Charge or Current Charge


@<TRIPOS>ATOM
      1 C2          17.6710    -9.8480    -0.2390 c6         1 648      -0.073400
      2 C7          17.9050   -13.6270     4.2820 ca         1 648      -0.088000
      3 C6          17.8220   -12.2330     4.4660 ca         1 648      -0.093300
      4 C4          18.6270   -11.6740     1.2450 c6         1 648       0.110000
      5 C10         15.9530   -12.5630     5.9810 ca         1 648      -0.107000
      6 C9          16.0390   -13.9530     5.7940 ca         1 648      -0.101000
      7 C15         18.0660   -16.6510     3.8820 cc         1 648      -0.121000
      8 C13         16.2810   -16.8480     5.3600 cd         1 648      -0.237000
      9 O           17.3970    -8.9010     3.3020 o          1 648      -0.562000
     10 C           17.5440    -9.6350     2.3340 c          1 648       0.566000
     11 N           18.2680   -10.8490     2.4280 n          1 648      -0.415800
     12 C3          17.8030   -11.3650    -0.0220 c6         1 648      -0.092400
     13 C1          16.9550    -9.2240     0.9750 c6         1 648      -0.159400
     14 C5          18.7860   -11.3040     3.7380 c3         1 648       0.144300
     15 C11         16.8410   -11.7040     5.3200 ca         1 648      -0.107000
     16 C8          17.0190   -14.5140     4.9380 ca         1 648      -0.010000
     17 C12         17.1330   -15.9740     4.7190 cc         1 648      -0.054000
     18 C14         17.9350   -18.0140     3.8770 cd         1 648      -0.250000
     19 S           16.6190   -18.5360     4.9350 ss         1 648       0.209000
     20 H3          17.1090    -9.6410    -1.1600 hc         1 648       0.049200
     21 H2          18.6660    -9.3970    -0.3640 hc         1 648       0.049200
     22 H7          18.5200   -12.7390     1.4920 h1         1 648       0.042700
     23 H6          19.6900   -11.5000     1.0220 h1         1 648       0.042700
     24 H12         15.1930   -12.1520     6.6420 ha         1 648       0.112000
     25 H11         15.3290   -14.5770     6.3260 ha         1 648       0.113000
     26 H16         18.8180   -16.1370     3.2940 ha         1 648       0.131000
     27 H14         15.4760   -16.6470     6.0520 h4         1 648       0.152000
     28 H4          16.8040   -11.8130     0.0730 hc         1 648       0.052200
     29 H5          18.2740   -11.8370    -0.8950 hc         1 648       0.052200
     30 H1          16.8810    -8.1310     0.9150 hc         1 648       0.072700
     31 H           15.9240    -9.6020     0.9770 hc         1 648       0.072700
     32 H9          19.7390   -11.8280     3.5800 h1         1 648       0.062700
     33 H8          19.0130   -10.4400     4.3750 h1         1 648       0.062700
     34 H13         16.7650   -10.6300     5.4690 ha         1 648       0.110000
     35 H15         18.5170   -18.7450     3.3290 h4         1 648       0.149000
     36 H10         18.6720   -14.0110     3.6170 ha         1 648       0.115000
@<TRIPOS>BOND
     1     1    12 1   
     2     1    13 1   
     3     1    20 1   
     4     1    21 1   
     5     2     3 ar  
     6     2    16 ar  
     7     2    36 1   
     8     3    14 1   
     9     3    15 ar  
    10     4    11 1   
    11     4    12 1   
    12     4    22 1   
    13     4    23 1   
    14     5     6 ar  
    15     5    15 ar  
    16     5    24 1   
    17     6    16 ar  
    18     6    25 1   
    19     7    17 1   
    20     7    18 2   
    21     7    26 1   
    22     8    17 2   
    23     8    19 1   
    24     8    27 1   
    25     9    10 2   
    26    10    11 1   
    27    10    13 1   
    28    11    14 1   
    29    12    28 1   
    30    12    29 1   
    31    13    30 1   
    32    13    31 1   
    33    14    32 1   
    34    14    33 1   
    35    15    34 1   
    36    16    17 1   
    37    18    19 1   
    38    18    35 1   
@<TRIPOS>SUBSTRUCTURE
     1 648         1 TEMP              0 ****  ****    0 ROOT
