@<TRIPOS>MOLECULE
648
   36    38     1     0     0
SMALL
abcg2


@<TRIPOS>ATOM
      1 C2          17.9080   -10.8640    -0.3060 c6         1 648      -0.073400
      2 C7          17.4030   -13.0290     4.1950 ca         1 648      -0.088000
      3 C6          17.7590   -11.8190     4.7710 ca         1 648      -0.093300
      4 C4          19.1480   -11.2510     1.8010 c6         1 648       0.110000
      5 C10         17.4710   -12.8130     6.9480 ca         1 648      -0.107000
      6 C9          17.1200   -14.0220     6.3630 ca         1 648      -0.101000
      7 C15         17.1990   -15.8440     3.0630 cc         1 648      -0.121000
      8 C13         15.8140   -16.3070     4.8550 cd         1 648      -0.237000
      9 O           15.7930   -10.2030     2.6340 o          1 648      -0.562000
     10 C           16.7530   -10.5520     1.9580 c          1 648       0.566000
     11 N           17.9600   -10.7970     2.5170 n          1 648      -0.415800
     12 C3          18.8300   -11.8150     0.4330 c6         1 648      -0.092400
     13 C1          16.6040   -10.7500     0.4660 c6         1 648      -0.159400
     14 C5          18.1200   -10.6080     3.9390 c3         1 648       0.144300
     15 C11         17.7900   -11.7180     6.1600 ca         1 648      -0.107000
     16 C8          17.0800   -14.1420     4.9750 ca         1 648      -0.010000
     17 C12         16.6980   -15.4060     4.3290 cc         1 648      -0.054000
     18 C14         16.6920   -17.0450     2.6780 cd         1 648      -0.250000
     19 S           15.5930   -17.6630     3.8370 ss         1 648       0.209000
     20 H3          17.7100   -11.2110    -1.3210 hc         1 648       0.049200
     21 H2          18.3840    -9.8830    -0.3950 hc         1 648       0.049200
     22 H7          19.6430   -12.0070     2.4140 h1         1 648       0.042700
     23 H6          19.8480   -10.4130     1.7040 h1         1 648       0.042700
     24 H12         17.5010   -12.7270     8.0260 ha         1 648       0.112000
     25 H11         16.8950   -14.8750     6.9890 ha         1 648       0.113000
     26 H16         17.9230   -15.2950     2.4780 ha         1 648       0.131000
     27 H14         15.2620   -16.2300     5.7800 h4         1 648       0.152000
     28 H4          18.3540   -12.7950     0.5300 hc         1 648       0.052200
     29 H5          19.7670   -11.9660    -0.1050 hc         1 648       0.052200
     30 H1          15.9820    -9.9350     0.0910 hc         1 648       0.072700
     31 H           16.0160   -11.6640     0.3350 hc         1 648       0.072700
     32 H9          19.1660   -10.3500     4.1240 h1         1 648       0.062700
     33 H8          17.5330    -9.7510     4.2690 h1         1 648       0.062700
     34 H13         18.0650   -10.7790     6.6270 ha         1 648       0.110000
     35 H15         16.9150   -17.6010     1.7800 h4         1 648       0.149000
     36 H10         17.3560   -13.1130     3.1160 ha         1 648       0.115000
@<TRIPOS>BOND
     1     1    12 1   
     2     1    13 1   
     3     1    20 1   
     4     1    21 1   
     5     2     3 ar  
     6     2    16 ar  
     7     2    36 1   
     8     3    14 1   
     9     3    15 ar  
    10     4    11 1   
    11     4    12 1   
    12     4    22 1   
    13     4    23 1   
    14     5     6 ar  
    15     5    15 ar  
    16     5    24 1   
    17     6    16 ar  
    18     6    25 1   
    19     7    17 1   
    20     7    18 2   
    21     7    26 1   
    22     8    17 2   
    23     8    19 1   
    24     8    27 1   
    25     9    10 2   
    26    10    11 1   
    27    10    13 1   
    28    11    14 1   
    29    12    28 1   
    30    12    29 1   
    31    13    30 1   
    32    13    31 1   
    33    14    32 1   
    34    14    33 1   
    35    15    34 1   
    36    16    17 1   
    37    18    19 1   
    38    18    35 1   
@<TRIPOS>SUBSTRUCTURE
     1 648         1 TEMP              0 ****  ****    0 ROOT
