@<TRIPOS>MOLECULE
649
   80    83     1     0     0
SMALL
bcc


@<TRIPOS>ATOM
      1 C15         10.1040    -1.2390   -14.0690 c3         1 649      -0.067400
      2 C16         10.4370     0.1780   -13.6270 c3         1 649      -0.158400
      3 C13          8.2580    -2.8920   -14.5700 c3         1 649      -0.072400
      4 C17         11.9110     0.4800   -13.6470 c          1 649       0.701100
      5 C11          6.0310    -3.3340   -13.3620 c3         1 649      -0.075400
      6 C10          4.5490    -3.6340   -13.5570 c3         1 649      -0.075400
      7 C2          -2.6100    -5.2740    -8.5280 ca         1 649      -0.168000
      8 C1          -1.2910    -5.0550    -8.1670 ca         1 649      -0.091500
      9 C6          -0.3090    -4.8380    -9.1300 ca         1 649      -0.192000
     10 C5          -0.6560    -4.8410   -10.4800 ca         1 649       0.146100
     11 C4          -1.9860    -5.0640   -10.8470 ca         1 649      -0.192000
     12 C3          -2.9490    -5.2770    -9.8770 ca         1 649      -0.091500
     13 O2          12.7900    -0.3420   -13.5950 o          1 649      -0.512100
     14 C14          8.6040    -1.5030   -14.0500 c3         1 649      -0.077400
     15 C12          6.7630    -3.1700   -14.6880 c3         1 649      -0.071400
     16 C9           3.7940    -3.8660   -12.2560 c3         1 649      -0.073400
     17 C8           2.3160    -4.1600   -12.4870 c3         1 649      -0.082400
     18 C7           1.5760    -4.3830   -11.1860 c3         1 649       0.143400
     19 O1           0.2130    -4.6400   -11.4890 os         1 649      -0.328900
     20 N6          12.1920     1.8380   -13.7140 ns         1 649      -0.701300
     21 S           13.7250     2.4710   -13.6680 s6         1 649       1.584100
     22 O4          14.5000     1.8820   -12.6140 o          1 649      -0.609300
     23 O3          13.5390     3.8990   -13.7510 o          1 649      -0.609300
     24 O5          14.3810     1.9230   -15.0020 os         1 649      -0.525500
     25 C18         13.8670     2.3770   -16.2720 c3         1 649       0.186400
     26 C19         13.8380     1.2060   -17.2170 c5         1 649       0.131100
     27 O6          12.9110     0.2390   -16.7510 os         1 649      -0.389600
     28 C22         12.2340    -0.3650   -17.8200 c5         1 649       0.259800
     29 C21         12.7900     0.2480   -19.1090 c5         1 649       0.079100
     30 O7          13.8300    -0.5780   -19.5530 oh         1 649      -0.573800
     31 C20         13.3340     1.5910   -18.6060 c5         1 649       0.066100
     32 O8          14.3750     2.1120   -19.3780 oh         1 649      -0.579800
     33 N1          10.8110    -0.1500   -17.6500 na         1 649      -0.274000
     34 C25          9.8350    -1.0550   -17.9610 ca         1 649       0.461800
     35 N3           9.9790    -2.2790   -18.4610 nb         1 649      -0.743000
     36 C26          8.8120    -2.8770   -18.6290 ca         1 649       0.712900
     37 N4           7.5960    -2.4050   -18.3670 nb         1 649      -0.825000
     38 C27          7.4690    -1.1730   -17.8630 ca         1 649       0.782200
     39 N5           6.2510    -0.6960   -17.6020 nv         1 649      -0.952500
     40 C24          8.6420    -0.4290   -17.6380 ca         1 649      -0.234200
     41 N2           8.8710     0.8260   -17.1380 nc         1 649      -0.553100
     42 C23         10.1650     0.9540   -17.1630 cd         1 649       0.399700
     43 H1          10.6120    -1.9590   -13.4240 hc         1 649       0.057200
     44 H2          10.4880    -1.4070   -15.0800 hc         1 649       0.057200
     45 H3           9.9000     0.9040   -14.2430 hc         1 649       0.063700
     46 H4          10.0910     0.3480   -12.6010 hc         1 649       0.063700
     47 H5           8.7240    -3.6520   -13.9330 hc         1 649       0.042200
     48 H6           8.7110    -3.0150   -15.5590 hc         1 649       0.042200
     49 H7           6.4960    -4.1460   -12.7910 hc         1 649       0.038700
     50 H8           6.1360    -2.4330   -12.7490 hc         1 649       0.038700
     51 H9           4.0840    -2.8060   -14.1040 hc         1 649       0.037700
     52 H10          4.4430    -4.5160   -14.1990 hc         1 649       0.037700
     53 H12         -1.0090    -5.0480    -7.1220 ha         1 649       0.129000
     54 H13          0.7100    -4.6700    -8.8090 ha         1 649       0.138000
     55 H14         -2.2530    -5.0680   -11.8970 ha         1 649       0.138000
     56 H15         -3.9750    -5.4480   -10.1790 ha         1 649       0.129000
     57 H16          8.0950    -0.7540   -14.6650 hc         1 649       0.037700
     58 H17          8.2290    -1.3680   -13.0310 hc         1 649       0.037700
     59 H18          6.2940    -2.3670   -15.2680 hc         1 649       0.037700
     60 H19          6.6220    -4.0820   -15.2770 hc         1 649       0.037700
     61 H20          4.2530    -4.6990   -11.7130 hc         1 649       0.039700
     62 H21          3.8970    -2.9870   -11.6110 hc         1 649       0.039700
     63 H22          1.8570    -3.3250   -13.0250 hc         1 649       0.054700
     64 H23          2.2150    -5.0440   -13.1230 hc         1 649       0.054700
     65 H24          2.0090    -5.2280   -10.6380 h1         1 649       0.033700
     66 H25          1.6620    -3.4970   -10.5460 h1         1 649       0.033700
     67 H26         11.4390     2.5160   -13.7180 hn         1 649       0.342500
     68 H27         14.5280     3.1550   -16.6530 h1         1 649       0.059700
     69 H28         12.8650     2.8010   -16.1640 h1         1 649       0.059700
     70 H29         14.8400     0.7660   -17.2950 h1         1 649       0.108700
     71 H30         12.3810    -1.4490   -17.8170 h2         1 649       0.137700
     72 H31         12.0080     0.3680   -19.8680 h1         1 649       0.073700
     73 H32         14.4460    -0.0340   -20.0590 ho         1 649       0.428000
     74 H33         12.5050     2.3060   -18.5160 h1         1 649       0.048700
     75 H34         14.0010     2.6220   -20.1040 ho         1 649       0.422000
     76 H35          8.8440    -3.8820   -19.0350 h5         1 649       0.051100
     77 H36          5.4410    -1.2770   -17.7360 hn         1 649       0.452800
     78 H37          6.1250     0.2030   -17.1720 hn         1 649       0.452800
     79 H38         10.6940     1.8320   -16.8270 h5         1 649       0.059800
     80 H11         -3.3660    -5.4410    -7.7710 ha         1 649       0.132000
@<TRIPOS>BOND
     1     1     2 1   
     2     1    14 1   
     3     1    43 1   
     4     1    44 1   
     5     2     4 1   
     6     2    45 1   
     7     2    46 1   
     8     3    14 1   
     9     3    15 1   
    10     3    47 1   
    11     3    48 1   
    12     4    13 2   
    13     4    20 1   
    14     5     6 1   
    15     5    15 1   
    16     5    49 1   
    17     5    50 1   
    18     6    16 1   
    19     6    51 1   
    20     6    52 1   
    21     7     8 ar  
    22     7    12 ar  
    23     7    80 1   
    24     8     9 ar  
    25     8    53 1   
    26     9    10 ar  
    27     9    54 1   
    28    10    11 ar  
    29    10    19 1   
    30    11    12 ar  
    31    11    55 1   
    32    12    56 1   
    33    14    57 1   
    34    14    58 1   
    35    15    59 1   
    36    15    60 1   
    37    16    17 1   
    38    16    61 1   
    39    16    62 1   
    40    17    18 1   
    41    17    63 1   
    42    17    64 1   
    43    18    19 1   
    44    18    65 1   
    45    18    66 1   
    46    20    21 1   
    47    20    67 1   
    48    21    22 2   
    49    21    23 2   
    50    21    24 1   
    51    24    25 1   
    52    25    26 1   
    53    25    68 1   
    54    25    69 1   
    55    26    27 1   
    56    26    31 1   
    57    26    70 1   
    58    27    28 1   
    59    28    29 1   
    60    28    33 1   
    61    28    71 1   
    62    29    30 1   
    63    29    31 1   
    64    29    72 1   
    65    30    73 1   
    66    31    32 1   
    67    31    74 1   
    68    32    75 1   
    69    33    34 1   
    70    33    42 1   
    71    34    35 ar  
    72    34    40 ar  
    73    35    36 ar  
    74    36    37 ar  
    75    36    76 1   
    76    37    38 ar  
    77    38    39 1   
    78    38    40 ar  
    79    39    77 1   
    80    39    78 1   
    81    40    41 1   
    82    41    42 2   
    83    42    79 1   
@<TRIPOS>SUBSTRUCTURE
     1 649         1 TEMP              0 ****  ****    0 ROOT
