@<TRIPOS>MOLECULE
649
   80    83     1     0     0
SMALL
No Charge or Current Charge


@<TRIPOS>ATOM
      1 C15         10.5270    -0.7260   -13.5020 c3         1 649      -0.067400
      2 C16         10.8560     0.5050   -12.6230 c3         1 649      -0.158400
      3 C13          8.7330    -2.3430   -14.3790 c3         1 649      -0.072400
      4 C17         12.3320     0.8970   -12.7520 c          1 649       0.634100
      5 C11          6.4260    -2.9550   -13.3500 c3         1 649      -0.075400
      6 C10          4.9490    -3.2930   -13.6450 c3         1 649      -0.075400
      7 C2          -2.5500    -5.6410    -9.1230 ca         1 649      -0.150000
      8 C1          -1.2660    -5.3720    -8.6220 ca         1 649      -0.073500
      9 C6          -0.2250    -5.0200    -9.5000 ca         1 649      -0.174000
     10 C5          -0.4710    -4.9360   -10.8890 ca         1 649       0.146100
     11 C4          -1.7590    -5.2060   -11.3820 ca         1 649      -0.174000
     12 C3          -2.7980    -5.5580   -10.5040 ca         1 649      -0.073500
     13 O2          13.2250     0.1990   -12.3010 o          1 649      -0.512100
     14 C14          9.0230    -1.0680   -13.5540 c3         1 649      -0.077400
     15 C12          7.2320    -2.6190   -14.6250 c3         1 649      -0.071400
     16 C9           4.1400    -3.6280   -12.3730 c3         1 649      -0.073400
     17 C8           2.6610    -3.9660   -12.6680 c3         1 649      -0.082400
     18 C7           1.8570    -4.3010   -11.3970 c3         1 649       0.166600
     19 O1           0.5090    -4.5950   -11.7990 os         1 649      -0.352100
     20 N6          12.5490     2.0800   -13.3780 ns         1 649      -0.634300
     21 S           13.9980     2.6820   -13.9190 s6         1 649       1.442500
     22 O4          15.0340     2.4420   -12.9090 o          1 649      -0.538500
     23 O3          13.7480     4.0240   -14.4520 o          1 649      -0.538500
     24 O5          14.2130     1.6340   -15.1630 os         1 649      -0.548700
     25 C18         13.6200     1.9940   -16.4250 c3         1 649       0.209600
     26 C19         13.4190     0.7040   -17.2540 c5         1 649       0.154300
     27 O6          12.4100    -0.1340   -16.6340 os         1 649      -0.436000
     28 C22         11.6850    -0.8590   -17.6590 c5         1 649       0.312300
     29 C21         12.3760    -0.4990   -19.0220 c5         1 649       0.102300
     30 O7          13.4880    -1.3510   -19.3470 oh         1 649      -0.696000
     31 C20         12.8830     0.9340   -18.6990 c5         1 649       0.089300
     32 O8          13.8970     1.3570   -19.6270 oh         1 649      -0.702000
     33 N1          10.2700    -0.4990   -17.5670 na         1 649      -0.303300
     34 C25          9.1810    -1.2420   -17.9400 ca         1 649       0.133500
     35 N3           9.1000    -2.4860   -18.4520 nb         1 649      -0.217000
     36 C26          7.8490    -2.9410   -18.7020 ca         1 649       0.186900
     37 N4           6.6880    -2.2750   -18.4950 nb         1 649      -0.299000
     38 C27          6.8050    -1.0390   -17.9890 ca         1 649       0.453900
     39 N5           5.6420    -0.3660   -17.7800 nv         1 649      -1.062900
     40 C24          8.0660    -0.4840   -17.6880 ca         1 649      -0.103600
     41 N2           8.3780     0.7570   -17.1440 nc         1 649      -0.553100
     42 C23          9.7200     0.7020   -17.0810 cd         1 649       0.399700
     43 H1          11.0850    -1.5950   -13.1280 hc         1 649       0.057200
     44 H2          10.8790    -0.5420   -14.5230 hc         1 649       0.057200
     45 H3          10.2150     1.3420   -12.9260 hc         1 649       0.063700
     46 H4          10.6500     0.2500   -11.5770 hc         1 649       0.063700
     47 H5           9.1830    -3.2100   -13.8790 hc         1 649       0.042200
     48 H6           9.2300    -2.2570   -15.3510 hc         1 649       0.042200
     49 H7           6.8960    -3.8060   -12.8410 hc         1 649       0.038700
     50 H8           6.4630    -2.1060   -12.6580 hc         1 649       0.038700
     51 H9           4.4800    -2.4420   -14.1560 hc         1 649       0.037700
     52 H10          4.9040    -4.1450   -14.3350 hc         1 649       0.037700
     53 H12         -1.0760    -5.4370    -7.5520 ha         1 649       0.111000
     54 H13          0.7590    -4.8170    -9.0870 ha         1 649       0.120000
     55 H14         -1.9500    -5.1420   -12.4500 ha         1 649       0.120000
     56 H15         -3.7930    -5.7660   -10.8920 ha         1 649       0.111000
     57 H16          8.4790    -0.2210   -13.9910 hc         1 649       0.037700
     58 H17          8.6500    -1.1990   -12.5310 hc         1 649       0.037700
     59 H18          6.7830    -1.7480   -15.1170 hc         1 649       0.037700
     60 H19          7.1450    -3.4550   -15.3300 hc         1 649       0.037700
     61 H20          4.6080    -4.4780   -11.8610 hc         1 649       0.039700
     62 H21          4.1830    -2.7760   -11.6830 hc         1 649       0.039700
     63 H22          2.1900    -3.1160   -13.1760 hc         1 649       0.054700
     64 H23          2.6160    -4.8210   -13.3540 hc         1 649       0.054700
     65 H24          2.3100    -5.1650   -10.8930 h1         1 649       0.033700
     66 H25          1.8790    -3.4420   -10.7130 h1         1 649       0.033700
     67 H26         11.7760     2.6130   -13.7310 hn         1 649       0.342500
     68 H27         14.2670     2.6910   -16.9750 h1         1 649       0.059700
     69 H28         12.6360     2.4670   -16.2960 h1         1 649       0.059700
     70 H29         14.3690     0.1530   -17.2760 h1         1 649       0.108700
     71 H30         11.7390    -1.9400   -17.4760 h2         1 649       0.137700
     72 H31         11.6460    -0.4920   -19.8440 h1         1 649       0.073700
     73 H32         14.1600    -0.7330   -19.7300 ho         1 649       0.527000
     74 H33         12.0470     1.6500   -18.6880 h1         1 649       0.048700
     75 H34         13.4580     1.8970   -20.3280 ho         1 649       0.521000
     76 H35          7.7690    -3.9460   -19.1130 h5         1 649       0.051100
     77 H36          4.7810    -0.9030   -17.7350 hn         1 649       0.508000
     78 H37          5.6920     0.4720   -17.2060 hn         1 649       0.508000
     79 H38         10.3570     1.4940   -16.7040 h5         1 649       0.059800
     80 H11         -3.3540    -5.9130    -8.4420 ha         1 649       0.114000
@<TRIPOS>BOND
     1     1     2 1   
     2     1    14 1   
     3     1    43 1   
     4     1    44 1   
     5     2     4 1   
     6     2    45 1   
     7     2    46 1   
     8     3    14 1   
     9     3    15 1   
    10     3    47 1   
    11     3    48 1   
    12     4    13 2   
    13     4    20 1   
    14     5     6 1   
    15     5    15 1   
    16     5    49 1   
    17     5    50 1   
    18     6    16 1   
    19     6    51 1   
    20     6    52 1   
    21     7     8 ar  
    22     7    12 ar  
    23     7    80 1   
    24     8     9 ar  
    25     8    53 1   
    26     9    10 ar  
    27     9    54 1   
    28    10    11 ar  
    29    10    19 1   
    30    11    12 ar  
    31    11    55 1   
    32    12    56 1   
    33    14    57 1   
    34    14    58 1   
    35    15    59 1   
    36    15    60 1   
    37    16    17 1   
    38    16    61 1   
    39    16    62 1   
    40    17    18 1   
    41    17    63 1   
    42    17    64 1   
    43    18    19 1   
    44    18    65 1   
    45    18    66 1   
    46    20    21 1   
    47    20    67 1   
    48    21    22 2   
    49    21    23 2   
    50    21    24 1   
    51    24    25 1   
    52    25    26 1   
    53    25    68 1   
    54    25    69 1   
    55    26    27 1   
    56    26    31 1   
    57    26    70 1   
    58    27    28 1   
    59    28    29 1   
    60    28    33 1   
    61    28    71 1   
    62    29    30 1   
    63    29    31 1   
    64    29    72 1   
    65    30    73 1   
    66    31    32 1   
    67    31    74 1   
    68    32    75 1   
    69    33    34 1   
    70    33    42 1   
    71    34    35 ar  
    72    34    40 ar  
    73    35    36 ar  
    74    36    37 ar  
    75    36    76 1   
    76    37    38 ar  
    77    38    39 1   
    78    38    40 ar  
    79    39    77 1   
    80    39    78 1   
    81    40    41 1   
    82    41    42 2   
    83    42    79 1   
@<TRIPOS>SUBSTRUCTURE
     1 649         1 TEMP              0 ****  ****    0 ROOT
