@<TRIPOS>MOLECULE
64A
   36    37     1     0     0
SMALL
abcg2


@<TRIPOS>ATOM
      1 C2          -5.1330    -0.4470     0.4810 c          1 64A       0.595200
      2 C3          -4.7210     0.8560     0.0050 cc         1 64A      -0.322400
      3 C4          -5.7370     1.9470    -0.0930 c3         1 64A      -0.003900
      4 C5          -3.4290     1.0200    -0.3280 cd         1 64A       0.026600
      5 C12          3.5980     0.1830    -0.3610 c3         1 64A      -0.114700
      6 C10          1.2600     0.4730    -0.4370 c5         1 64A       0.190300
      7 C13          4.6870    -0.7210     0.2540 c          1 64A       0.729000
      8 N21         -4.1130    -1.3780     0.5320 ns         1 64A      -0.474500
      9 N6          -2.4690     0.0460    -0.2510 n          1 64A      -0.282000
     10 C22         -2.7940    -1.2150     0.1870 c          1 64A       0.607000
     11 C7          -1.1010     0.3730    -0.6670 c5         1 64A       0.096700
     12 C20         -0.0060     0.2200     0.3810 c5         1 64A      -0.090400
     13 C9           0.9310    -0.0220    -1.8750 c5         1 64A      -0.121400
     14 C8          -0.5630    -0.3810    -1.8830 c5         1 64A      -0.090400
     15 O1          -6.2660    -0.7460     0.8180 o          1 64A      -0.577000
     16 O11          2.3440    -0.1740     0.1690 os         1 64A      -0.395000
     17 O18          3.6350     2.1030     1.0400 o          1 64A      -0.754000
     18 O17          4.6090     2.2610    -0.9590 o          1 64A      -0.754000
     19 O14          5.8240    -0.5920    -0.2420 o          1 64A      -0.754000
     20 O15          4.3570    -1.4800     1.1810 o          1 64A      -0.754000
     21 O23         -2.0000    -2.1310     0.2720 o          1 64A      -0.527000
     22 C16          3.9750     1.6570    -0.0730 c          1 64A       0.729000
     23 H1          -6.5660     1.6590    -0.7410 hc         1 64A       0.033033
     24 H2          -6.1590     2.1880     0.8830 hc         1 64A       0.033033
     25 H3          -5.2950     2.8550    -0.5000 hc         1 64A       0.033033
     26 H4          -3.0710     1.9760    -0.6850 h4         1 64A       0.205000
     27 H5           3.6130     0.0270    -1.4500 h1         1 64A      -0.000300
     28 H6           1.4320     1.5570    -0.4740 h1         1 64A       0.046700
     29 H7          -4.3590    -2.3050     0.8550 hn         1 64A       0.330500
     30 H8          -1.1470     1.4310    -0.9360 h1         1 64A       0.045700
     31 H9           0.0120    -0.7960     0.7770 hc         1 64A       0.069200
     32 H10         -0.1150     0.9180     1.2120 hc         1 64A       0.069200
     33 H11          1.1470     0.7570    -2.6070 hc         1 64A       0.052200
     34 H12          1.5430    -0.8860    -2.1400 hc         1 64A       0.052200
     35 H13         -0.7020    -1.4530    -1.7560 hc         1 64A       0.035700
     36 H14         -1.0680    -0.0850    -2.8030 hc         1 64A       0.035700
@<TRIPOS>BOND
     1     1     2 1   
     2     1     8 1   
     3     1    15 2   
     4     2     3 1   
     5     2     4 2   
     6     3    23 1   
     7     3    24 1   
     8     3    25 1   
     9     4     9 1   
    10     4    26 1   
    11     5     7 1   
    12     5    16 1   
    13     5    22 1   
    14     5    27 1   
    15     6    12 1   
    16     6    13 1   
    17     6    16 1   
    18     6    28 1   
    19     7    19 1   
    20     7    20 1   
    21     8    10 1   
    22     8    29 1   
    23     9    10 1   
    24     9    11 1   
    25    10    21 2   
    26    11    12 1   
    27    11    14 1   
    28    11    30 1   
    29    12    31 1   
    30    12    32 1   
    31    13    14 1   
    32    13    33 1   
    33    13    34 1   
    34    14    35 1   
    35    14    36 1   
    36    17    22 1   
    37    18    22 1   
@<TRIPOS>SUBSTRUCTURE
     1 64A         1 TEMP              0 ****  ****    0 ROOT
