@<TRIPOS>MOLECULE
64A
   36    37     1     0     0
SMALL
No Charge or Current Charge


@<TRIPOS>ATOM
      1 C2          -4.9940    -0.7410     0.3300 c          1 64A       0.595200
      2 C3          -4.7680     0.7040     0.1310 cc         1 64A      -0.322400
      3 C4          -5.9690     1.5980     0.3300 c3         1 64A      -0.003900
      4 C5          -3.5150     1.1620    -0.2170 cd         1 64A       0.026600
      5 C12          3.6190    -0.0010    -0.2370 c3         1 64A      -0.114700
      6 C10          1.2190     0.6700    -0.4750 c5         1 64A       0.190300
      7 C13          4.6220    -0.7060     0.7040 c          1 64A       0.729000
      8 N21         -3.8900    -1.5060     0.1440 ns         1 64A      -0.474500
      9 N6          -2.4470     0.2810    -0.3870 n          1 64A      -0.282000
     10 C22         -2.6340    -1.1150    -0.1950 c          1 64A       0.607000
     11 C7          -1.1220     0.8640    -0.7890 c5         1 64A       0.096700
     12 C20         -0.0870     0.6490     0.3530 c5         1 64A      -0.090400
     13 C9           0.8640    -0.3300    -1.6120 c5         1 64A      -0.121400
     14 C8          -0.5430     0.1670    -2.0680 c5         1 64A      -0.090400
     15 O1          -6.0620    -1.2450     0.6360 o          1 64A      -0.577000
     16 O11          2.2760     0.1180     0.3510 os         1 64A      -0.395000
     17 O18          3.9660     2.3470     0.1050 o          1 64A      -0.754000
     18 O17          4.9750     1.4440    -1.5580 o          1 64A      -0.754000
     19 O14          5.6260    -1.2010     0.2090 o          1 64A      -0.754000
     20 O15          4.3430    -0.8480     1.8880 o          1 64A      -0.754000
     21 O23         -1.7560    -1.9550    -0.3060 o          1 64A      -0.527000
     22 C16          4.2680     1.3640    -0.5620 c          1 64A       0.729000
     23 H1          -6.7740     1.3380    -0.3680 hc         1 64A       0.033033
     24 H2          -6.3620     1.5090     1.3510 hc         1 64A       0.033033
     25 H3          -5.7140     2.6520     0.1640 hc         1 64A       0.033033
     26 H4          -3.2730     2.2100    -0.3810 h4         1 64A       0.205000
     27 H5           3.5680    -0.5900    -1.1630 h1         1 64A      -0.000300
     28 H6           1.4780     1.6740    -0.8410 h1         1 64A       0.046700
     29 H7          -4.0170    -2.4960     0.2780 hn         1 64A       0.330500
     30 H8          -1.2130     1.9400    -0.9920 h1         1 64A       0.045700
     31 H9          -0.2060    -0.3000     0.8840 hc         1 64A       0.069200
     32 H10         -0.1230     1.4500     1.0990 hc         1 64A       0.069200
     33 H11          1.5890    -0.3070    -2.4340 hc         1 64A       0.052200
     34 H12          0.8220    -1.3610    -1.2420 hc         1 64A       0.052200
     35 H13         -1.1620    -0.6450    -2.4650 hc         1 64A       0.035700
     36 H14         -0.4490     0.8980    -2.8790 hc         1 64A       0.035700
@<TRIPOS>BOND
     1     1     2 1   
     2     1     8 1   
     3     1    15 2   
     4     2     3 1   
     5     2     4 2   
     6     3    23 1   
     7     3    24 1   
     8     3    25 1   
     9     4     9 1   
    10     4    26 1   
    11     5     7 1   
    12     5    16 1   
    13     5    22 1   
    14     5    27 1   
    15     6    12 1   
    16     6    13 1   
    17     6    16 1   
    18     6    28 1   
    19     7    19 1   
    20     7    20 1   
    21     8    10 1   
    22     8    29 1   
    23     9    10 1   
    24     9    11 1   
    25    10    21 2   
    26    11    12 1   
    27    11    14 1   
    28    11    30 1   
    29    12    31 1   
    30    12    32 1   
    31    13    14 1   
    32    13    33 1   
    33    13    34 1   
    34    14    35 1   
    35    14    36 1   
    36    17    22 1   
    37    18    22 1   
@<TRIPOS>SUBSTRUCTURE
     1 64A         1 TEMP              0 ****  ****    0 ROOT
