@<TRIPOS>MOLECULE
64B
   33    34     1     0     0
SMALL
No Charge or Current Charge


@<TRIPOS>ATOM
      1 C2          -0.7560    -1.5920    -0.8110 cg         1 64B       0.317700
      2 O21          4.9300    -0.8950    -0.2410 os         1 64B      -0.331100
      3 C4          -2.9950    -1.3910     0.2570 c          1 64B       0.623300
      4 O5          -3.9220    -0.8210     0.8130 o          1 64B      -0.504000
      5 N3           0.0040    -2.2810    -1.3680 n1         1 64B      -0.464000
      6 O6          -3.0250    -2.7380    -0.0230 os         1 64B      -0.420100
      7 C7          -4.1950    -3.4900     0.3490 c3         1 64B       0.153900
      8 C8          -1.4530     0.6040    -0.0300 c2         1 64B       0.246200
      9 N9          -0.2710     1.3170    -0.3880 n          1 64B      -0.135600
     10 C10         -0.4290     2.7020    -0.6410 c          1 64B       0.580000
     11 C11         -1.8980     3.0770    -0.4880 c5         1 64B      -0.126400
     12 S12         -2.6000     1.8050     0.6370 ss         1 64B      -0.084600
     13 O13          0.4860     3.4740    -0.9000 o          1 64B      -0.458000
     14 C14          1.0590     0.7480    -0.3300 ca         1 64B      -0.170000
     15 C15          1.9180     0.8430    -1.4430 ca         1 64B      -0.021000
     16 C16          3.2060     0.2850    -1.3890 ca         1 64B      -0.156000
     17 C17          3.6550    -0.3680    -0.2310 ca         1 64B       0.200100
     18 C18          2.8050    -0.4600     0.8880 ca         1 64B      -0.243000
     19 C19          1.5190     0.0950     0.8350 ca         1 64B       0.241000
     20 F20          0.7250     0.0080     1.9260 f          1 64B      -0.165000
     21 C22          5.4840    -1.5850     0.8930 c3         1 64B       0.145900
     22 H2          -5.0890    -3.1000    -0.1550 h1         1 64B       0.051033
     23 H3          -4.0780    -4.5430     0.0650 h1         1 64B       0.051033
     24 H4          -4.3610    -3.4470     1.4330 h1         1 64B       0.051033
     25 H6          -1.9930     4.0850    -0.0680 h1         1 64B       0.117200
     26 H7          -2.3770     3.0250    -1.4730 h1         1 64B       0.117200
     27 H8           1.5870     1.3380    -2.3540 ha         1 64B       0.130000
     28 H9           3.8620     0.3570    -2.2520 ha         1 64B       0.140000
     29 H10          3.1190    -0.9520     1.8020 ha         1 64B       0.142000
     30 H11          6.5040    -1.9230     0.6710 h1         1 64B       0.047700
     31 H12          5.5270    -0.9260     1.7690 h1         1 64B       0.047700
     32 H13          4.8820    -2.4680     1.1440 h1         1 64B       0.047700
     33 C1          -1.7100    -0.7320    -0.1780 ce         1 64B      -0.171900
@<TRIPOS>BOND
     1     1     5 3   
     2     1    33 1   
     3     2    17 1   
     4     2    21 1   
     5     3     4 2   
     6     3     6 1   
     7     3    33 1   
     8     6     7 1   
     9     7    22 1   
    10     7    23 1   
    11     7    24 1   
    12     8     9 1   
    13     8    12 1   
    14     8    33 2   
    15     9    10 1   
    16     9    14 1   
    17    10    11 1   
    18    10    13 2   
    19    11    12 1   
    20    11    25 1   
    21    11    26 1   
    22    14    15 ar  
    23    14    19 ar  
    24    15    16 ar  
    25    15    27 1   
    26    16    17 ar  
    27    16    28 1   
    28    17    18 ar  
    29    18    19 ar  
    30    18    29 1   
    31    19    20 1   
    32    21    30 1   
    33    21    31 1   
    34    21    32 1   
@<TRIPOS>SUBSTRUCTURE
     1 64B         1 TEMP              0 ****  ****    0 ROOT
