@<TRIPOS>MOLECULE
64B
   33    34     1     0     0
SMALL
bcc


@<TRIPOS>ATOM
      1 C2          -0.4980    -1.6770    -0.1810 cg         1 64B       0.228500
      2 O21          4.6740    -1.1220    -0.5040 os         1 64B      -0.307900
      3 C4          -2.9260    -1.3720    -0.0310 c          1 64B       0.672300
      4 O5          -3.9450    -0.7200     0.0390 o          1 64B      -0.553000
      5 N3           0.3210    -2.4890    -0.2240 n1         1 64B      -0.374800
      6 O6          -2.8860    -2.6910    -0.0320 os         1 64B      -0.396900
      7 C7          -4.1270    -3.3920     0.0720 c3         1 64B       0.130700
      8 C8          -1.4710     0.5920    -0.1280 c2         1 64B       0.246200
      9 N9          -0.2970     1.2850    -0.2060 n          1 64B      -0.295200
     10 C10         -0.3740     2.6750    -0.1780 c          1 64B       0.722500
     11 C11         -1.7990     3.1270    -0.1020 c5         1 64B      -0.174300
     12 S12         -2.8430     1.6550    -0.0390 ss         1 64B      -0.036700
     13 O13          0.5960     3.3800    -0.2140 o          1 64B      -0.533500
     14 C14          0.9790     0.6720    -0.2830 ca         1 64B      -0.077400
     15 C15          1.5690     0.3790    -1.5060 ca         1 64B      -0.039000
     16 C16          2.8070    -0.2220    -1.5540 ca         1 64B      -0.174000
     17 C17          3.4830    -0.5330    -0.3680 ca         1 64B       0.200100
     18 C18          2.9120    -0.2190     0.8640 ca         1 64B      -0.261000
     19 C19          1.6710     0.3820     0.8760 ca         1 64B       0.205900
     20 F20          1.1020     0.6770     2.0460 f          1 64B      -0.129900
     21 C22          5.4260    -1.4280     0.6580 c3         1 64B       0.122700
     22 H2          -4.7770    -3.1750    -0.7740 h1         1 64B       0.051033
     23 H3          -3.8690    -4.4470     0.0700 h1         1 64B       0.051033
     24 H4          -4.6430    -3.1460     1.0000 h1         1 64B       0.051033
     25 H6          -1.9490     3.7360     0.7890 h1         1 64B       0.117200
     26 H7          -2.0440     3.7300    -0.9770 h1         1 64B       0.117200
     27 H8           1.0430     0.6130    -2.4220 ha         1 64B       0.148000
     28 H9           3.2610    -0.4600    -2.5070 ha         1 64B       0.158000
     29 H10          3.3980    -0.4330     1.8060 ha         1 64B       0.160000
     30 H11          6.3430    -1.8970     0.3130 h1         1 64B       0.047700
     31 H12          5.6780    -0.5270     1.2230 h1         1 64B       0.047700
     32 H13          4.8980    -2.1250     1.3120 h1         1 64B       0.047700
     33 C1          -1.5910    -0.7760    -0.1200 ce         1 64B      -0.171900
@<TRIPOS>BOND
     1     1     5 3   
     2     1    33 1   
     3     2    17 1   
     4     2    21 1   
     5     3     4 2   
     6     3     6 1   
     7     3    33 1   
     8     6     7 1   
     9     7    22 1   
    10     7    23 1   
    11     7    24 1   
    12     8     9 1   
    13     8    12 1   
    14     8    33 2   
    15     9    10 1   
    16     9    14 1   
    17    10    11 1   
    18    10    13 2   
    19    11    12 1   
    20    11    25 1   
    21    11    26 1   
    22    14    15 ar  
    23    14    19 ar  
    24    15    16 ar  
    25    15    27 1   
    26    16    17 ar  
    27    16    28 1   
    28    17    18 ar  
    29    18    19 ar  
    30    18    29 1   
    31    19    20 1   
    32    21    30 1   
    33    21    31 1   
    34    21    32 1   
@<TRIPOS>SUBSTRUCTURE
     1 64B         1 TEMP              0 ****  ****    0 ROOT
