@<TRIPOS>MOLECULE
64D
   37    38     1     0     0
SMALL
No Charge or Current Charge


@<TRIPOS>ATOM
      1 C13         -3.1830     0.8630     1.3850 ca         1 64D      -0.005500
      2 C17         -3.3470    -0.5810    -0.5780 ca         1 64D      -0.005500
      3 C14         -4.0220    -0.0130     2.0950 ca         1 64D      -0.125500
      4 C16         -4.1860    -1.4510     0.1390 ca         1 64D      -0.125500
      5 C10         -2.8450     0.5820     0.0450 ca         1 64D      -0.304500
      6 C15         -4.5220    -1.1670     1.4710 ca         1 64D       0.167000
      7 C19          6.0010    -1.2460     0.1240 c          1 64D       0.728000
      8 C4           3.4490     1.3260    -1.2240 c6         1 64D      -0.106400
      9 C5           2.2060    -0.6510    -0.3440 c6         1 64D      -0.106400
     10 C2           4.7550     0.8340    -0.5570 c6         1 64D       0.102500
     11 C3           3.4910    -1.1820     0.3360 c6         1 64D       0.102500
     12 C6           2.1950     0.8930    -0.4350 c6         1 64D      -0.064700
     13 C7           0.8980     1.4500    -1.0920 c3         1 64D       0.197800
     14 N1           4.7770    -0.6120    -0.1750 n          1 64D      -0.436800
     15 N8          -0.2960     1.1730    -0.2800 n7         1 64D      -0.857300
     16 O20          7.0400    -0.6610    -0.1330 o          1 64D      -0.735000
     17 O11         -1.7980     1.3770    -2.2840 o          1 64D      -0.547000
     18 O12         -1.9350     3.0610    -0.3390 o          1 64D      -0.547000
     19 S9          -1.7660     1.7010    -0.8560 sy         1 64D       1.148600
     20 Cl1         -5.5720    -2.2610     2.3640 cl         1 64D      -0.198000
     21 O22          5.9770    -2.3600     0.6190 o          1 64D      -0.735000
     22 H13         -2.7970     1.7540     1.8800 ha         1 64D       0.138000
     23 H14         -4.2840     0.2010     3.1270 ha         1 64D       0.131500
     24 H17         -3.0950    -0.8140    -1.6120 ha         1 64D       0.138000
     25 H16         -4.5760    -2.3470    -0.3390 ha         1 64D       0.131500
     26 H41C         3.4810     2.4210    -1.3150 hc         1 64D       0.032950
     27 H42C         3.3960     0.9320    -2.2480 hc         1 64D       0.032950
     28 H21C         5.5860     1.0490    -1.2430 h1         1 64D       0.036950
     29 H22C         4.9280     1.4260     0.3540 h1         1 64D       0.036950
     30 H6           2.2460     1.3190     0.5770 hc         1 64D       0.049700
     31 H51C         2.1270    -1.0810    -1.3520 hc         1 64D       0.032950
     32 H52C         1.3350    -1.0140     0.2170 hc         1 64D       0.032950
     33 H31C         3.4320    -0.9660     1.4120 h1         1 64D       0.036950
     34 H32C         3.5020    -2.2760     0.2290 h1         1 64D       0.036950
     35 H71C         1.0180     2.5360    -1.2160 h1         1 64D       0.049700
     36 H72C         0.8030     1.0130    -2.0960 h1         1 64D       0.049700
     37 H8          -0.4480     0.1690    -0.2170 hn         1 64D       0.485000
@<TRIPOS>BOND
     1     1     3 ar  
     2     1     5 ar  
     3     1    22 1   
     4     2     4 ar  
     5     2     5 ar  
     6     2    24 1   
     7     3     6 ar  
     8     3    23 1   
     9     4     6 ar  
    10     4    25 1   
    11     5    19 1   
    12     6    20 1   
    13     7    14 1   
    14     7    16 1   
    15     7    21 1   
    16     8    10 1   
    17     8    12 1   
    18     8    26 1   
    19     8    27 1   
    20     9    11 1   
    21     9    12 1   
    22     9    31 1   
    23     9    32 1   
    24    10    14 1   
    25    10    28 1   
    26    10    29 1   
    27    11    14 1   
    28    11    33 1   
    29    11    34 1   
    30    12    13 1   
    31    12    30 1   
    32    13    15 1   
    33    13    35 1   
    34    13    36 1   
    35    15    19 1   
    36    15    37 1   
    37    17    19 2   
    38    18    19 2   
@<TRIPOS>SUBSTRUCTURE
     1 64D         1 TEMP              0 ****  ****    0 ROOT
