@<TRIPOS>MOLECULE
64D
   37    38     1     0     0
SMALL
abcg2


@<TRIPOS>ATOM
      1 C13         -2.8150     0.1890     1.2250 ca         1 64D      -0.005500
      2 C17         -2.7680    -0.0320    -1.1810 ca         1 64D      -0.005500
      3 C14         -3.4060    -1.0570     1.3310 ca         1 64D      -0.125500
      4 C16         -3.3610    -1.2810    -1.0780 ca         1 64D      -0.125500
      5 C10         -2.4980     0.6940    -0.0300 ca         1 64D      -0.304500
      6 C15         -3.6730    -1.7810     0.1760 ca         1 64D       0.167000
      7 C19          4.5750    -1.9190     0.0470 c          1 64D       0.728000
      8 C4           2.9550     0.4700    -1.5070 c6         1 64D      -0.106400
      9 C5           2.3000     0.2820     0.9040 c6         1 64D      -0.106400
     10 C2           4.4060     0.2770    -1.0690 c6         1 64D       0.102500
     11 C3           3.7800     0.0950     1.2350 c6         1 64D       0.102500
     12 C6           2.1250     1.0920    -0.3830 c6         1 64D      -0.064700
     13 C7           0.6700     1.2000    -0.8190 c3         1 64D       0.197800
     14 N1           4.5060    -0.5070     0.1410 n          1 64D      -0.436800
     15 N8          -0.0960     1.9980     0.1390 n7         1 64D      -0.857300
     16 O20          4.9120    -2.3940    -1.0580 o          1 64D      -0.735000
     17 O11         -1.8110     2.7370    -1.5110 o          1 64D      -0.547000
     18 O12         -2.1680     3.0930     0.9570 o          1 64D      -0.547000
     19 S9          -1.6900     2.2700    -0.1400 sy         1 64D       1.148600
     20 CL1         -4.4130    -3.3350     0.3080 cl         1 64D      -0.198000
     21 O22          4.3320    -2.5660     1.0880 o          1 64D      -0.735000
     22 H13         -2.6150     0.7560     2.1250 ha         1 64D       0.138000
     23 H14         -3.6570    -1.4570     2.3030 ha         1 64D       0.131500
     24 H17         -2.5300     0.3610    -2.1600 ha         1 64D       0.138000
     25 H16         -3.5780    -1.8520    -1.9700 ha         1 64D       0.131500
     26 H41C         2.9200     1.1080    -2.3950 hc         1 64D       0.032950
     27 H42C         2.5310    -0.4990    -1.7890 hc         1 64D       0.032950
     28 H21C         4.9840    -0.1980    -1.8570 h1         1 64D       0.036950
     29 H22C         4.8530     1.2620    -0.8870 h1         1 64D       0.036950
     30 H6           2.5010     2.1090    -0.2070 hc         1 64D       0.049700
     31 H51C         1.8330    -0.7020     0.7820 hc         1 64D       0.032950
     32 H52C         1.8070     0.7660     1.7520 hc         1 64D       0.032950
     33 H31C         4.2190     1.0760     1.4520 h1         1 64D       0.036950
     34 H32C         3.8950    -0.5140     2.1280 h1         1 64D       0.036950
     35 H71C         0.6190     1.6950    -1.7890 h1         1 64D       0.049700
     36 H72C         0.2530     0.1910    -0.9370 h1         1 64D       0.049700
     37 H8           0.0760     1.7690     1.1120 hn         1 64D       0.485000
@<TRIPOS>BOND
     1     1     3 ar  
     2     1     5 ar  
     3     1    22 1   
     4     2     4 ar  
     5     2     5 ar  
     6     2    24 1   
     7     3     6 ar  
     8     3    23 1   
     9     4     6 ar  
    10     4    25 1   
    11     5    19 1   
    12     6    20 1   
    13     7    14 1   
    14     7    16 1   
    15     7    21 1   
    16     8    10 1   
    17     8    12 1   
    18     8    26 1   
    19     8    27 1   
    20     9    11 1   
    21     9    12 1   
    22     9    31 1   
    23     9    32 1   
    24    10    14 1   
    25    10    28 1   
    26    10    29 1   
    27    11    14 1   
    28    11    33 1   
    29    11    34 1   
    30    12    13 1   
    31    12    30 1   
    32    13    15 1   
    33    13    35 1   
    34    13    36 1   
    35    15    19 1   
    36    15    37 1   
    37    17    19 2   
    38    18    19 2   
@<TRIPOS>SUBSTRUCTURE
     1 64D         1 TEMP              0 ****  ****    0 ROOT
