@<TRIPOS>MOLECULE
64I
   24    25     1     0     0
SMALL
bcc


@<TRIPOS>ATOM
      1 F15         -0.7950     1.6640     1.5350 f          1 64I      -0.103150
      2 C8          -1.4460     0.8350     0.7260 ca         1 64I       0.184150
      3 C10         -2.8240     0.8710     0.6980 ca         1 64I       0.024900
      4 F14         -3.4900     1.7300     1.4770 f          1 64I      -0.111150
      5 C12         -3.5470     0.0230    -0.1330 ca         1 64I       0.138100
      6 O13         -4.8770     0.0080    -0.2090 oh         1 64I      -0.455600
      7 C11         -2.8310    -0.8620    -0.9320 ca         1 64I       0.024900
      8 F17         -3.4960    -1.6860    -1.7400 f          1 64I      -0.111150
      9 C9          -1.4530    -0.8890    -0.8950 ca         1 64I       0.184150
     10 F16         -0.8050    -1.7470    -1.6770 f          1 64I      -0.103150
     11 C7          -0.7300    -0.0440    -0.0690 cp         1 64I      -0.124000
     12 C2           0.7420    -0.0780    -0.0370 cp         1 64I      -0.124000
     13 C4           1.4970     0.7530    -0.8460 ca         1 64I       0.184150
     14 F22          0.8860     1.5980    -1.6710 f          1 64I      -0.103150
     15 C1           1.4260    -0.9410     0.8040 ca         1 64I       0.184150
     16 F18          0.7390    -1.7550     1.5990 f          1 64I      -0.103150
     17 C3           2.8040    -0.9770     0.8410 ca         1 64I       0.024900
     18 F19          3.4300    -1.8190     1.6620 f          1 64I      -0.111150
     19 C5           3.5600    -0.1410     0.0250 ca         1 64I       0.138100
     20 O20          4.8870    -0.2190     0.0980 oh         1 64I      -0.455600
     21 C6           2.8760     0.7260    -0.8190 ca         1 64I       0.024900
     22 F21          3.5800     1.5390    -1.6120 f          1 64I      -0.111150
     23 H1          -5.2740     0.6750     0.3650 ho         1 64I       0.452000
     24 H2           5.3140     0.4080    -0.5000 ho         1 64I       0.452000
@<TRIPOS>BOND
     1     1     2 1   
     2     2     3 ar  
     3     2    11 ar  
     4     3     4 1   
     5     3     5 ar  
     6     5     6 1   
     7     5     7 ar  
     8     6    23 1   
     9     7     8 1   
    10     7     9 ar  
    11     9    10 1   
    12     9    11 ar  
    13    11    12 1   
    14    12    13 ar  
    15    12    15 ar  
    16    13    14 1   
    17    13    21 ar  
    18    15    16 1   
    19    15    17 ar  
    20    17    18 1   
    21    17    19 ar  
    22    19    20 1   
    23    19    21 ar  
    24    20    24 1   
    25    21    22 1   
@<TRIPOS>SUBSTRUCTURE
     1 64I         1 TEMP              0 ****  ****    0 ROOT
