@<TRIPOS>MOLECULE
64I
   24    25     1     0     0
SMALL
No Charge or Current Charge


@<TRIPOS>ATOM
      1 F15         -0.7950     1.9650     1.2110 f          1 64I      -0.138250
      2 C8          -1.4650     0.9860     0.5570 ca         1 64I       0.219250
      3 C10         -2.8720     1.0200     0.5280 ca         1 64I       0.060000
      4 F14         -3.5360     2.0310     1.1400 f          1 64I      -0.146250
      5 C12         -3.5940     0.0050    -0.1320 ca         1 64I       0.138100
      6 O13         -4.9670     0.0360    -0.1620 oh         1 64I      -0.494600
      7 C11         -2.8930    -1.0430    -0.7610 ca         1 64I       0.060000
      8 F17         -3.5720    -2.0250    -1.4030 f          1 64I      -0.146250
      9 C9          -1.4850    -1.0740    -0.7290 ca         1 64I       0.219250
     10 F16         -0.8340    -2.0830    -1.3540 f          1 64I      -0.138250
     11 C7          -0.7430    -0.0610    -0.0700 cp         1 64I      -0.124000
     12 C2           0.7550    -0.0960    -0.0380 cp         1 64I      -0.124000
     13 C4           1.5240     0.9040    -0.6850 ca         1 64I       0.219250
     14 F22          0.9010     1.9000    -1.3580 f          1 64I      -0.138250
     15 C1           1.4480    -1.1300     0.6410 ca         1 64I       0.219250
     16 F18          0.7500    -2.0950     1.2850 f          1 64I      -0.138250
     17 C3           2.8560    -1.1650     0.6730 ca         1 64I       0.060000
     18 F19          3.4890    -2.1650     1.3340 f          1 64I      -0.146250
     19 C5           3.6050    -0.1630     0.0240 ca         1 64I       0.138100
     20 O20          4.9780    -0.1960     0.0540 oh         1 64I      -0.494600
     21 C6           2.9320     0.8720    -0.6560 ca         1 64I       0.060000
     22 F21          3.6420     1.8390    -1.2870 f          1 64I      -0.146250
     23 H1          -5.2730     0.8330     0.3250 ho         1 64I       0.491000
     24 H2           5.3220     0.5760    -0.4480 ho         1 64I       0.491000
@<TRIPOS>BOND
     1     1     2 1   
     2     2     3 ar  
     3     2    11 ar  
     4     3     4 1   
     5     3     5 ar  
     6     5     6 1   
     7     5     7 ar  
     8     6    23 1   
     9     7     8 1   
    10     7     9 ar  
    11     9    10 1   
    12     9    11 ar  
    13    11    12 1   
    14    12    13 ar  
    15    12    15 ar  
    16    13    14 1   
    17    13    21 ar  
    18    15    16 1   
    19    15    17 ar  
    20    17    18 1   
    21    17    19 ar  
    22    19    20 1   
    23    19    21 ar  
    24    20    24 1   
    25    21    22 1   
@<TRIPOS>SUBSTRUCTURE
     1 64I         1 TEMP              0 ****  ****    0 ROOT
