@<TRIPOS>MOLECULE
64J
   35    37     1     0     0
SMALL
abcg2


@<TRIPOS>ATOM
      1 C4           3.3120    -0.9490    -0.9250 ca         1 64J       0.227300
      2 C5           3.5130     0.1650    -0.1050 ca         1 64J      -0.314800
      3 C6           4.5830     0.0140     0.8250 ca         1 64J       0.477900
      4 N1           5.2850    -1.1110     0.8570 nb         1 64J      -0.357000
      5 N3           4.0050    -2.0750    -0.9090 nb         1 64J      -0.266000
      6 FAD         -6.1750    -0.8830     1.3570 f          1 64J      -0.109333
      7 CAX         -5.0950    -0.8040     0.5970 c3         1 64J       0.513000
      8 FAE         -4.3340    -1.8750     0.8370 f          1 64J      -0.109333
      9 FAF         -5.4720    -0.8790    -0.6800 f          1 64J      -0.109333
     10 CAQ         -3.3100     0.6480     0.1930 ca         1 64J       0.081100
     11 CAH         -3.3900     1.4190    -0.9550 ca         1 64J      -0.089000
     12 CAJ         -2.2250     1.7680    -1.6170 ca         1 64J      -0.096500
     13 CAG         -2.0890     0.2300     0.6920 ca         1 64J      -0.089000
     14 CAI         -0.9240     0.5880     0.0300 ca         1 64J      -0.096500
     15 CAR         -0.9890     1.3530    -1.1280 ca         1 64J      -0.102000
     16 CAU          1.7200     0.9040    -1.3570 cc         1 64J      -0.063800
     17 SAO          1.9960    -0.6910    -2.0160 ss         1 64J      -0.087900
     18 C2           4.9780    -2.0950     0.0040 ca         1 64J       0.439900
     19 NAB          5.7450    -3.1980     0.0580 nv         1 64J      -1.057900
     20 NAC          4.9260     0.9600     1.7030 nv         1 64J      -1.073900
     21 CAT          2.5870     1.2320    -0.3570 cd         1 64J       0.058600
     22 CAA          2.5420     2.5230     0.3870 c3         1 64J      -0.058900
     23 H1          -4.3480     1.7540    -1.3300 ha         1 64J       0.134500
     24 H2          -2.2870     2.3640    -2.5190 ha         1 64J       0.130500
     25 H3          -2.0340    -0.3540     1.6010 ha         1 64J       0.134500
     26 H4           0.0290     0.2670     0.4280 ha         1 64J       0.130500
     27 H5           6.3620    -3.3290     0.8400 hn         1 64J       0.499000
     28 H6           5.4570    -4.0180    -0.4490 hn         1 64J       0.499000
     29 H7           4.5200     1.8770     1.7040 hn         1 64J       0.501500
     30 H8           5.7310     0.8110     2.2880 hn         1 64J       0.501500
     31 H9           2.3570     2.3560     1.4500 hc         1 64J       0.054033
     32 H10          3.4790     3.0760     0.2890 hc         1 64J       0.054033
     33 H11          1.7470     3.1640     0.0120 hc         1 64J       0.054033
     34 SAN          0.4490     1.8850    -2.0230 ss         1 64J      -0.009600
     35 OAM         -4.4760     0.3460     0.8890 os         1 64J      -0.402100
@<TRIPOS>BOND
     1     1     2 ar  
     2     1     5 ar  
     3     1    17 1   
     4     2     3 ar  
     5     2    21 1   
     6     3     4 ar  
     7     3    20 1   
     8     4    18 ar  
     9     5    18 ar  
    10     6     7 1   
    11     7     8 1   
    12     7     9 1   
    13     7    35 1   
    14    10    11 ar  
    15    10    13 ar  
    16    10    35 1   
    17    11    12 ar  
    18    11    23 1   
    19    12    15 ar  
    20    12    24 1   
    21    13    14 ar  
    22    13    25 1   
    23    14    15 ar  
    24    14    26 1   
    25    15    34 1   
    26    16    17 1   
    27    16    21 2   
    28    16    34 1   
    29    18    19 1   
    30    19    27 1   
    31    19    28 1   
    32    20    29 1   
    33    20    30 1   
    34    21    22 1   
    35    22    31 1   
    36    22    32 1   
    37    22    33 1   
@<TRIPOS>SUBSTRUCTURE
     1 64J         1 TEMP              0 ****  ****    0 ROOT
