@<TRIPOS>MOLECULE
64J
   35    37     1     0     0
SMALL
No Charge or Current Charge


@<TRIPOS>ATOM
      1 C4           2.9670    -0.8000    -0.8480 ca         1 64J       0.227300
      2 C5           3.4100     0.2700    -0.0860 ca         1 64J      -0.314800
      3 C6           4.5010     0.0370     0.7650 ca         1 64J       0.477900
      4 N1           5.0860    -1.1620     0.8440 nb         1 64J      -0.357000
      5 N3           3.5350    -2.0160    -0.7890 nb         1 64J      -0.266000
      6 FAD         -5.9760    -1.6620     1.1850 f          1 64J      -0.109333
      7 CAX         -5.2050    -0.9920     0.3010 c3         1 64J       0.513000
      8 FAE         -4.9950    -1.8230    -0.7460 f          1 64J      -0.109333
      9 FAF         -5.9340     0.0590    -0.1400 f          1 64J      -0.109333
     10 CAQ         -2.9740     0.1300     0.2650 ca         1 64J       0.081100
     11 CAH         -3.0590     0.5270    -1.0910 ca         1 64J      -0.089000
     12 CAJ         -2.0010     1.2410    -1.6830 ca         1 64J      -0.096500
     13 CAG         -1.8270     0.4630     1.0060 ca         1 64J      -0.089000
     14 CAI         -0.7720     1.1760     0.4120 ca         1 64J      -0.096500
     15 CAR         -0.8520     1.5600    -0.9410 ca         1 64J      -0.102000
     16 CAU          1.6410     1.2310    -1.2890 cc         1 64J      -0.063800
     17 SAO          1.5850    -0.4340    -1.9050 ss         1 64J      -0.087900
     18 C2           4.5670    -2.1170     0.0620 ca         1 64J       0.439900
     19 NAB          5.1600    -3.3270     0.1460 nv         1 64J      -1.057900
     20 NAC          5.0640     0.9780     1.5540 nv         1 64J      -1.073900
     21 CAT          2.6160     1.4740    -0.3280 cd         1 64J       0.058600
     22 CAA          2.8270     2.7910     0.3930 c3         1 64J      -0.058900
     23 H1          -3.9270     0.2950    -1.6990 ha         1 64J       0.134500
     24 H2          -2.0740     1.5420    -2.7260 ha         1 64J       0.130500
     25 H3          -1.7580     0.1660     2.0500 ha         1 64J       0.134500
     26 H4           0.1010     1.4310     1.0080 ha         1 64J       0.130500
     27 H5           5.7760    -3.4990     0.9370 hn         1 64J       0.499000
     28 H6           4.6690    -4.1330    -0.2310 hn         1 64J       0.499000
     29 H7           4.8940     1.9510     1.3290 hn         1 64J       0.501500
     30 H8           5.9690     0.7640     1.9650 hn         1 64J       0.501500
     31 H9           2.8320     2.6440     1.4790 hc         1 64J       0.054033
     32 H10          3.7800     3.2470     0.1010 hc         1 64J       0.054033
     33 H11          2.0440     3.5280     0.1870 hc         1 64J       0.054033
     34 SAN          0.4730     2.4770    -1.7310 ss         1 64J      -0.009600
     35 OAM         -3.9700    -0.5740     0.9190 os         1 64J      -0.402100
@<TRIPOS>BOND
     1     1     2 ar  
     2     1     5 ar  
     3     1    17 1   
     4     2     3 ar  
     5     2    21 1   
     6     3     4 ar  
     7     3    20 1   
     8     4    18 ar  
     9     5    18 ar  
    10     6     7 1   
    11     7     8 1   
    12     7     9 1   
    13     7    35 1   
    14    10    11 ar  
    15    10    13 ar  
    16    10    35 1   
    17    11    12 ar  
    18    11    23 1   
    19    12    15 ar  
    20    12    24 1   
    21    13    14 ar  
    22    13    25 1   
    23    14    15 ar  
    24    14    26 1   
    25    15    34 1   
    26    16    17 1   
    27    16    21 2   
    28    16    34 1   
    29    18    19 1   
    30    19    27 1   
    31    19    28 1   
    32    20    29 1   
    33    20    30 1   
    34    21    22 1   
    35    22    31 1   
    36    22    32 1   
    37    22    33 1   
@<TRIPOS>SUBSTRUCTURE
     1 64J         1 TEMP              0 ****  ****    0 ROOT
