@<TRIPOS>MOLECULE
64K
   20    20     1     0     0
SMALL
No Charge or Current Charge


@<TRIPOS>ATOM
      1 O2          32.4360    12.0360    42.8270 oh         1 64K      -0.712000
      2 C2          32.8460    10.6500    42.9520 c6         1 64K       0.151300
      3 C3          33.7780    10.4930    44.1950 c6         1 64K       0.139300
      4 O3          34.9550    11.3050    44.0440 oh         1 64K      -0.704000
      5 C4          34.1980     9.0050    44.3890 c6         1 64K       0.109300
      6 O4          35.0870     8.6200    43.3170 oh         1 64K      -0.687000
      7 C5          32.9130     8.1210    44.4300 c6         1 64K       0.132600
      8 O5          32.1230     8.3080    43.2330 os         1 64K      -0.474000
      9 C1          31.6410     9.6470    43.0760 c6         1 64K       0.400300
     10 O1          30.8620     9.5900    41.8970 oh         1 64K      -0.679000
     11 HO2         33.2330    12.5570    43.0910 ho         1 64K       0.521000
     12 H2          33.4190    10.3520    42.0610 h1         1 64K       0.088700
     13 H3          33.2190    10.8110    45.0890 h1         1 64K       0.034700
     14 HO3         35.6120    10.6890    43.6360 ho         1 64K       0.507000
     15 H4          34.7160     8.9060    45.3550 h1         1 64K       0.031700
     16 HO4         35.1720     7.6380    43.3460 ho         1 64K       0.503000
     17 H51         32.3050     8.3800    45.3090 h1         1 64K       0.050700
     18 H52         33.1870     7.0600    44.5160 h1         1 64K       0.050700
     19 H1          31.0060     9.9150    43.9340 h2         1 64K       0.019700
     20 HO1         30.8550     8.6290    41.6980 ho         1 64K       0.516000
@<TRIPOS>BOND
     1     1     2 1   
     2     1    11 1   
     3     2     3 1   
     4     2     9 1   
     5     2    12 1   
     6     3     4 1   
     7     3     5 1   
     8     3    13 1   
     9     4    14 1   
    10     5     6 1   
    11     5     7 1   
    12     5    15 1   
    13     6    16 1   
    14     7     8 1   
    15     7    17 1   
    16     7    18 1   
    17     8     9 1   
    18     9    10 1   
    19     9    19 1   
    20    10    20 1   
@<TRIPOS>SUBSTRUCTURE
     1 64K         1 TEMP              0 ****  ****    0 ROOT
