@<TRIPOS>MOLECULE
64K
   20    20     1     0     0
SMALL
abcg2


@<TRIPOS>ATOM
      1 O2          32.3730    11.8430    42.8460 oh         1 64K      -0.712000
      2 C2          32.8980    10.5400    42.8990 c6         1 64K       0.151300
      3 C3          33.8430    10.3740    44.0880 c6         1 64K       0.139300
      4 O3          34.9250    11.2520    43.8880 oh         1 64K      -0.704000
      5 C4          34.2640     8.9170    44.2610 c6         1 64K       0.109300
      6 O4          35.1000     8.5620    43.1880 oh         1 64K      -0.687000
      7 C5          32.9990     8.0700    44.3250 c6         1 64K       0.132600
      8 O5          32.2010     8.2520    43.1780 os         1 64K      -0.474000
      9 C1          31.7280     9.5710    43.0450 c6         1 64K       0.400300
     10 O1          30.9490     9.6410    41.9100 oh         1 64K      -0.679000
     11 HO2         33.1140    12.4570    42.8790 ho         1 64K       0.521000
     12 H2          33.4370    10.2890    41.9730 h1         1 64K       0.088700
     13 H3          33.2830    10.6500    44.9950 h1         1 64K       0.034700
     14 HO3         35.3720    11.3890    44.7290 ho         1 64K       0.507000
     15 H4          34.7850     8.8140    45.2250 h1         1 64K       0.031700
     16 HO4         35.3710     7.6460    43.3030 ho         1 64K       0.503000
     17 H51         32.4440     8.3200    45.2400 h1         1 64K       0.050700
     18 H52         33.2470     7.0070    44.3770 h1         1 64K       0.050700
     19 H1          31.1530     9.8420    43.9500 h2         1 64K       0.019700
     20 HO1         30.0780     9.2740    42.0970 ho         1 64K       0.516000
@<TRIPOS>BOND
     1     1     2 1   
     2     1    11 1   
     3     2     3 1   
     4     2     9 1   
     5     2    12 1   
     6     3     4 1   
     7     3     5 1   
     8     3    13 1   
     9     4    14 1   
    10     5     6 1   
    11     5     7 1   
    12     5    15 1   
    13     6    16 1   
    14     7     8 1   
    15     7    17 1   
    16     7    18 1   
    17     8     9 1   
    18     9    10 1   
    19     9    19 1   
    20    10    20 1   
@<TRIPOS>SUBSTRUCTURE
     1 64K         1 TEMP              0 ****  ****    0 ROOT
