@<TRIPOS>MOLECULE
64L
   42    43     1     0     0
SMALL
bcc


@<TRIPOS>ATOM
      1 C1           6.4340     0.4050     2.0450 c          1 64L       0.943600
      2 C3           4.9570    -0.1610     0.0830 c          1 64L       0.717100
      3 C4           2.5800     0.5020    -0.2390 ca         1 64L       0.123600
      4 C5           2.0390    -0.7540    -0.5160 ca         1 64L      -0.149000
      5 C6           0.6800    -0.8640    -0.7660 ca         1 64L       0.002600
      6 C7          -0.1700     0.2350    -0.7630 ca         1 64L       0.067100
      7 C8          -2.3750    -0.1500    -0.0480 ca         1 64L       0.108100
      8 C9          -2.0170    -0.2420     1.2850 ca         1 64L      -0.143000
      9 C10         -3.0030    -0.5010     2.2270 ca         1 64L      -0.189000
     10 C11         -4.3310    -0.6660     1.8530 ca         1 64L       0.102100
     11 C13         -3.6970    -0.3210    -0.4280 ca         1 64L      -0.118000
     12 C18          1.7400     1.6190    -0.2250 ca         1 64L      -0.149000
     13 C17          0.3900     1.4770    -0.4780 ca         1 64L       0.002600
     14 O4          -1.4830     0.1130    -1.0640 os         1 64L      -0.230200
     15 C12         -4.6950    -0.5840     0.5030 ca         1 64L      -0.079300
     16 C16         -6.7110     0.6290    -0.3350 c3         1 64L      -0.083600
     17 C15         -6.2740    -1.7340    -1.0950 c3         1 64L      -0.083600
     18 O5          -5.3010    -0.9070     2.7660 oh         1 64L      -0.506100
     19 BR1         -0.0470    -2.5560    -1.1370 br         1 64L      -0.091600
     20 N            3.9240     0.7300     0.0250 ns         1 64L      -0.463100
     21 O3           4.8280    -1.3470    -0.1650 o          1 64L      -0.605100
     22 C2           6.2630     0.4480     0.4990 c3         1 64L      -0.317400
     23 O2           7.5270     0.8100     2.4720 o          1 64L      -0.816800
     24 O1           5.4650    -0.0190     2.6990 o          1 64L      -0.816800
     25 H1           2.6660    -1.6300    -0.5330 ha         1 64L       0.172000
     26 H2          -0.9930    -0.1160     1.6140 ha         1 64L       0.156000
     27 H3          -2.7230    -0.5700     3.2720 ha         1 64L       0.131000
     28 H4          -3.9500    -0.2440    -1.4800 ha         1 64L       0.146000
     29 H5          -6.7200    -1.1170     0.8870 hc         1 64L       0.062700
     30 H6           2.1500     2.5970    -0.0090 ha         1 64L       0.172000
     31 H7          -6.6370     1.3410     0.4870 hc         1 64L       0.031700
     32 H8          -6.1790     1.0500    -1.1920 hc         1 64L       0.031700
     33 H9          -7.7630     0.5390    -0.6090 hc         1 64L       0.031700
     34 H10         -5.8470    -2.7020    -0.8330 hc         1 64L       0.031700
     35 H11         -7.3270    -1.8860    -1.3330 hc         1 64L       0.031700
     36 H12         -5.7840    -1.3860    -2.0060 hc         1 64L       0.031700
     37 H13         -4.9220    -0.9410     3.6510 ho         1 64L       0.420000
     38 H14          4.1570     1.6870     0.2410 hn         1 64L       0.323500
     39 H15          6.3530     1.4850     0.1640 hc         1 64L       0.050700
     40 H16          7.0770    -0.1070     0.0300 hc         1 64L       0.050700
     41 BR2         -0.7250     2.9870    -0.4540 br         1 64L      -0.091600
     42 C14         -6.1320    -0.7330     0.0520 c3         1 64L      -0.007400
@<TRIPOS>BOND
     1     1    22 1   
     2     1    23 1   
     3     1    24 1   
     4     2    20 1   
     5     2    21 2   
     6     2    22 1   
     7     3     4 ar  
     8     3    12 ar  
     9     3    20 1   
    10     4     5 ar  
    11     4    25 1   
    12     5     6 ar  
    13     5    19 1   
    14     6    13 ar  
    15     6    14 1   
    16     7     8 ar  
    17     7    11 ar  
    18     7    14 1   
    19     8     9 ar  
    20     8    26 1   
    21     9    10 ar  
    22     9    27 1   
    23    10    15 ar  
    24    10    18 1   
    25    11    15 ar  
    26    11    28 1   
    27    12    13 ar  
    28    12    30 1   
    29    13    41 1   
    30    15    42 1   
    31    16    31 1   
    32    16    32 1   
    33    16    33 1   
    34    16    42 1   
    35    17    34 1   
    36    17    35 1   
    37    17    36 1   
    38    17    42 1   
    39    18    37 1   
    40    20    38 1   
    41    22    39 1   
    42    22    40 1   
    43    29    42 1   
@<TRIPOS>SUBSTRUCTURE
     1 64L         1 TEMP              0 ****  ****    0 ROOT
