@<TRIPOS>MOLECULE
64L
   42    43     1     0     0
SMALL
No Charge or Current Charge


@<TRIPOS>ATOM
      1 C1           6.4890     0.6710     2.0010 c          1 64L       0.733000
      2 C3           5.1190     0.0130     0.1540 c          1 64L       0.650100
      3 C4           2.6190     0.4890    -0.2200 ca         1 64L       0.031000
      4 C5           2.1760    -0.7960    -0.6100 ca         1 64L      -0.131000
      5 C6           0.8190    -1.0240    -0.8970 ca         1 64L       0.002600
      6 C7          -0.1130     0.0260    -0.7960 ca         1 64L       0.067100
      7 C8          -2.3860    -0.3990    -0.0910 ca         1 64L       0.108100
      8 C9          -2.0250    -0.6130     1.2540 ca         1 64L      -0.125000
      9 C10         -3.0250    -0.8040     2.2220 ca         1 64L      -0.171000
     10 C11         -4.3830    -0.7860     1.8580 ca         1 64L       0.102100
     11 C13         -3.7410    -0.3850    -0.4560 ca         1 64L      -0.100000
     12 C18          1.6790     1.5340    -0.1290 ca         1 64L      -0.131000
     13 C17          0.3220     1.3090    -0.4140 ca         1 64L       0.002600
     14 O4          -1.4410    -0.2060    -1.0770 os         1 64L      -0.230200
     15 C12         -4.7580    -0.5750     0.5070 ca         1 64L      -0.079300
     16 C16         -6.6190     0.8330    -0.5150 c3         1 64L      -0.083600
     17 C15         -6.5420    -1.6870    -0.9340 c3         1 64L      -0.083600
     18 O5          -5.3200    -0.9760     2.8340 oh         1 64L      -0.545100
     19 Br1          0.2550    -2.7820    -1.4150 br         1 64L      -0.091600
     20 N            3.9740     0.7960     0.0840 ns         1 64L      -0.137000
     21 O3           5.1420    -1.1960    -0.0440 o          1 64L      -0.605100
     22 C2           6.3810     0.7770     0.5010 c3         1 64L      -0.317400
     23 O2           7.1100    -0.2690     2.4700 o          1 64L      -0.711500
     24 O1           5.8900     1.4960     2.6700 o          1 64L      -0.711500
     25 H1           2.8650    -1.6290    -0.7000 ha         1 64L       0.154000
     26 H2          -0.9810    -0.6350     1.5560 ha         1 64L       0.138000
     27 H3          -2.7350    -0.9680     3.2580 ha         1 64L       0.113000
     28 H4          -3.9990    -0.2210    -1.4980 ha         1 64L       0.128000
     29 H5          -6.8870    -0.7100     0.9240 hc         1 64L       0.062700
     30 H6           2.0020     2.5300     0.1660 ha         1 64L       0.154000
     31 H7          -6.4090     1.6260     0.2130 hc         1 64L       0.031700
     32 H8          -6.0610     1.0540    -1.4330 hc         1 64L       0.031700
     33 H9          -7.6890     0.8650    -0.7520 hc         1 64L       0.031700
     34 H10         -6.2770    -2.6580    -0.4990 hc         1 64L       0.031700
     35 H11         -7.6110    -1.7040    -1.1780 hc         1 64L       0.031700
     36 H12         -5.9810    -1.5650    -1.8680 hc         1 64L       0.031700
     37 H13         -4.8580    -1.1020     3.6900 ho         1 64L       0.459000
     38 H14          4.1340     1.7730     0.2900 hn         1 64L       0.157000
     39 H15          6.2150     1.8250     0.2250 hc         1 64L       0.050700
     40 H16          7.2170     0.2620     0.0140 hc         1 64L       0.050700
     41 Br2         -0.9150     2.7700    -0.2780 br         1 64L      -0.091600
     42 C14         -6.2300    -0.5470     0.0620 c3         1 64L      -0.007400
@<TRIPOS>BOND
     1     1    22 1   
     2     1    23 1   
     3     1    24 1   
     4     2    20 1   
     5     2    21 2   
     6     2    22 1   
     7     3     4 ar  
     8     3    12 ar  
     9     3    20 1   
    10     4     5 ar  
    11     4    25 1   
    12     5     6 ar  
    13     5    19 1   
    14     6    13 ar  
    15     6    14 1   
    16     7     8 ar  
    17     7    11 ar  
    18     7    14 1   
    19     8     9 ar  
    20     8    26 1   
    21     9    10 ar  
    22     9    27 1   
    23    10    15 ar  
    24    10    18 1   
    25    11    15 ar  
    26    11    28 1   
    27    12    13 ar  
    28    12    30 1   
    29    13    41 1   
    30    15    42 1   
    31    16    31 1   
    32    16    32 1   
    33    16    33 1   
    34    16    42 1   
    35    17    34 1   
    36    17    35 1   
    37    17    36 1   
    38    17    42 1   
    39    18    37 1   
    40    20    38 1   
    41    22    39 1   
    42    22    40 1   
    43    29    42 1   
@<TRIPOS>SUBSTRUCTURE
     1 64L         1 TEMP              0 ****  ****    0 ROOT
