@<TRIPOS>MOLECULE
64M
   49    52     1     0     0
SMALL
No Charge or Current Charge


@<TRIPOS>ATOM
      1 C1           5.3260    -1.8010     0.1700 ca         1 64M       0.056100
      2 C2           6.1120    -1.7320     1.3600 ca         1 64M       0.287900
      3 N4           6.4330    -0.5650     1.9850 nb         1 64M      -0.658000
      4 C5           4.8540    -0.6010    -0.3910 ca         1 64M      -0.067000
      5 N7           6.1240     1.8780     1.8230 na         1 64M      -0.329400
      6 C9           5.4650     2.7710     0.9490 cc         1 64M      -0.138100
      7 C11          4.8900     1.9590    -0.0160 cd         1 64M      -0.145400
      8 C12          5.2030     0.5790     0.2780 ca         1 64M      -0.092800
      9 C13          5.9670     0.5670     1.4240 ca         1 64M       0.344500
     10 O14          5.0050    -2.9920    -0.4570 os         1 64M      -0.341100
     11 C15          4.0560     2.4350    -1.1790 c3         1 64M       0.062100
     12 C18          2.6200     1.9310    -1.1270 ca         1 64M      -0.182300
     13 C19          1.8320     2.1460     0.0230 ca         1 64M       0.395900
     14 N21          0.5520     1.7230     0.1380 nb         1 64M      -0.741000
     15 C22          0.0370     1.0680    -0.8990 ca         1 64M       0.597900
     16 C23          0.7270     0.7990    -2.0890 ca         1 64M      -0.229000
     17 C25          2.0520     1.2400    -2.2120 ca         1 64M      -0.035000
     18 C27          5.4470    -4.2620     0.0550 c3         1 64M       0.148900
     19 N31         -1.2520     0.6950    -0.6620 nu         1 64M      -0.921100
     20 C33         -2.1210    -0.1290    -1.5050 c3         1 64M       0.262100
     21 C36         -3.4720    -0.3240    -0.8310 ca         1 64M      -0.078300
     22 C37         -4.5170     0.5930    -1.0530 ca         1 64M      -0.100000
     23 C39         -5.7660     0.4150    -0.4320 ca         1 64M      -0.063000
     24 C41         -5.9880    -0.6810     0.4300 ca         1 64M      -0.190300
     25 C42         -4.9390    -1.6020     0.6450 ca         1 64M      -0.063000
     26 C44         -3.6920    -1.4210     0.0220 ca         1 64M      -0.100000
     27 C46         -7.3520    -0.8830     1.1000 c3         1 64M       0.356300
     28 F47         -8.1720    -1.6320     0.3290 f          1 64M      -0.113333
     29 F48         -7.2510    -1.5100     2.2950 f          1 64M      -0.113333
     30 F49         -7.9890     0.2880     1.3330 f          1 64M      -0.113333
     31 H1           6.5010    -2.6330     1.8330 h4         1 64M       0.021100
     32 H2           4.2520    -0.5940    -1.2950 ha         1 64M       0.135000
     33 H3           6.6500     2.1440     2.6460 hn         1 64M       0.362000
     34 H4           5.4580     3.8500     1.0800 h4         1 64M       0.214000
     35 H5           4.0510     3.5310    -1.2050 hc         1 64M       0.049700
     36 H6           4.5350     2.1210    -2.1140 hc         1 64M       0.049700
     37 H7           2.2380     2.6790     0.8820 h4         1 64M       0.017100
     38 H8           0.2480     0.2620    -2.9010 ha         1 64M       0.120000
     39 H9           2.6190     1.0480    -3.1210 ha         1 64M       0.113000
     40 H10          6.5430    -4.3110     0.0830 h1         1 64M       0.039700
     41 H11          5.0610    -4.4300     1.0680 h1         1 64M       0.039700
     42 H12          5.0870    -5.0770    -0.5860 h1         1 64M       0.039700
     43 H13         -1.5840     0.9530     0.2620 hn         1 64M       0.491000
     44 H14         -2.2650     0.3500    -2.4830 h1         1 64M       0.047700
     45 H15         -1.6560    -1.1100    -1.6800 h1         1 64M       0.047700
     46 H16         -4.3620     1.4460    -1.7110 ha         1 64M       0.127000
     47 H17         -6.5600     1.1340    -0.6260 ha         1 64M       0.132000
     48 H18         -5.0850    -2.4630     1.2950 ha         1 64M       0.132000
     49 H19         -2.8940    -2.1380     0.2030 ha         1 64M       0.127000
@<TRIPOS>BOND
     1     1     2 ar  
     2     1     4 ar  
     3     1    10 1   
     4     2     3 ar  
     5     2    31 1   
     6     3     9 ar  
     7     4     8 ar  
     8     4    32 1   
     9     5     6 1   
    10     5     9 1   
    11     5    33 1   
    12     6     7 2   
    13     6    34 1   
    14     7     8 1   
    15     7    11 1   
    16     8     9 ar  
    17    10    18 1   
    18    11    12 1   
    19    11    35 1   
    20    11    36 1   
    21    12    13 ar  
    22    12    17 ar  
    23    13    14 ar  
    24    13    37 1   
    25    14    15 ar  
    26    15    16 ar  
    27    15    19 1   
    28    16    17 ar  
    29    16    38 1   
    30    17    39 1   
    31    18    40 1   
    32    18    41 1   
    33    18    42 1   
    34    19    20 1   
    35    19    43 1   
    36    20    21 1   
    37    20    44 1   
    38    20    45 1   
    39    21    22 ar  
    40    21    26 ar  
    41    22    23 ar  
    42    22    46 1   
    43    23    24 ar  
    44    23    47 1   
    45    24    25 ar  
    46    24    27 1   
    47    25    26 ar  
    48    25    48 1   
    49    26    49 1   
    50    27    28 1   
    51    27    29 1   
    52    27    30 1   
@<TRIPOS>SUBSTRUCTURE
     1 64M         1 TEMP              0 ****  ****    0 ROOT
