@<TRIPOS>MOLECULE
64M
   49    52     1     0     0
SMALL
abcg2


@<TRIPOS>ATOM
      1 C1           5.3020    -1.8910     0.2240 ca         1 64M       0.056100
      2 C2           6.1450    -1.7840     1.3430 ca         1 64M       0.287900
      3 N4           6.5090    -0.6240     1.8780 nb         1 64M      -0.658000
      4 C5           4.8070    -0.7380    -0.3740 ca         1 64M      -0.067000
      5 N7           6.2670     1.7500     1.6680 na         1 64M      -0.329400
      6 C9           5.5900     2.5800     0.8170 cc         1 64M      -0.138100
      7 C11          4.9080     1.8570    -0.1220 cd         1 64M      -0.145400
      8 C12          5.1790     0.4830     0.1720 ca         1 64M      -0.092800
      9 C13          6.0330     0.4580     1.2990 ca         1 64M       0.344500
     10 O14          4.9290    -3.0690    -0.3250 os         1 64M      -0.341100
     11 C15          4.0400     2.3820    -1.2190 c3         1 64M       0.062100
     12 C18          2.6040     1.9420    -1.0900 ca         1 64M      -0.182300
     13 C19          1.8480     2.2600     0.0310 ca         1 64M       0.395900
     14 N21          0.5850     1.9090     0.2150 nb         1 64M      -0.741000
     15 C22         -0.0270     1.1920    -0.7300 ca         1 64M       0.597900
     16 C23          0.6330     0.8220    -1.9100 ca         1 64M      -0.229000
     17 C25          1.9520     1.2030    -2.0710 ca         1 64M      -0.035000
     18 C27          5.4160    -4.2660     0.2450 c3         1 64M       0.148900
     19 N31         -1.3170     0.8300    -0.4560 nu         1 64M      -0.921100
     20 C33         -2.2090     0.3180    -1.4700 c3         1 64M       0.262100
     21 C36         -3.5160    -0.0820    -0.8440 ca         1 64M      -0.078300
     22 C37         -4.6940     0.5860    -1.1570 ca         1 64M      -0.100000
     23 C39         -5.8940     0.2270    -0.5630 ca         1 64M      -0.063000
     24 C41         -5.9250    -0.8110     0.3600 ca         1 64M      -0.190300
     25 C42         -4.7530    -1.4900     0.6780 ca         1 64M      -0.063000
     26 C44         -3.5600    -1.1220     0.0800 ca         1 64M      -0.100000
     27 C46         -7.2310    -1.2120     0.9700 c3         1 64M       0.356300
     28 F47         -7.9500    -1.9850     0.1410 f          1 64M      -0.113333
     29 F48         -7.0760    -1.9030     2.1030 f          1 64M      -0.113333
     30 F49         -7.9960    -0.1500     1.2580 f          1 64M      -0.113333
     31 H1           6.5390    -2.6680     1.8290 h4         1 64M       0.021100
     32 H2           4.1510    -0.8060    -1.2340 ha         1 64M       0.135000
     33 H3           6.8310     2.0460     2.4470 hn         1 64M       0.362000
     34 H4           5.6400     3.6500     0.9430 h4         1 64M       0.214000
     35 H5           4.0980     3.4740    -1.2260 hc         1 64M       0.049700
     36 H6           4.4220     2.0550    -2.1910 hc         1 64M       0.049700
     37 H7           2.2990     2.8380     0.8340 h4         1 64M       0.017100
     38 H8           0.1340     0.2550    -2.6840 ha         1 64M       0.120000
     39 H9           2.4770     0.9220    -2.9780 ha         1 64M       0.113000
     40 H10          6.5080    -4.3230     0.2110 h1         1 64M       0.039700
     41 H11          5.0900    -4.3900     1.2820 h1         1 64M       0.039700
     42 H12          5.0060    -5.0800    -0.3470 h1         1 64M       0.039700
     43 H13         -1.7470     1.3730     0.2770 hn         1 64M       0.491000
     44 H14         -2.3850     1.0440    -2.2730 h1         1 64M       0.047700
     45 H15         -1.7560    -0.5610    -1.9360 h1         1 64M       0.047700
     46 H16         -4.6780     1.4010    -1.8700 ha         1 64M       0.127000
     47 H17         -6.7930     0.7690    -0.8230 ha         1 64M       0.132000
     48 H18         -4.7550    -2.3040     1.3900 ha         1 64M       0.132000
     49 H19         -2.6520    -1.6540     0.3360 ha         1 64M       0.127000
@<TRIPOS>BOND
     1     1     2 ar  
     2     1     4 ar  
     3     1    10 1   
     4     2     3 ar  
     5     2    31 1   
     6     3     9 ar  
     7     4     8 ar  
     8     4    32 1   
     9     5     6 1   
    10     5     9 1   
    11     5    33 1   
    12     6     7 2   
    13     6    34 1   
    14     7     8 1   
    15     7    11 1   
    16     8     9 ar  
    17    10    18 1   
    18    11    12 1   
    19    11    35 1   
    20    11    36 1   
    21    12    13 ar  
    22    12    17 ar  
    23    13    14 ar  
    24    13    37 1   
    25    14    15 ar  
    26    15    16 ar  
    27    15    19 1   
    28    16    17 ar  
    29    16    38 1   
    30    17    39 1   
    31    18    40 1   
    32    18    41 1   
    33    18    42 1   
    34    19    20 1   
    35    19    43 1   
    36    20    21 1   
    37    20    44 1   
    38    20    45 1   
    39    21    22 ar  
    40    21    26 ar  
    41    22    23 ar  
    42    22    46 1   
    43    23    24 ar  
    44    23    47 1   
    45    24    25 ar  
    46    24    27 1   
    47    25    26 ar  
    48    25    48 1   
    49    26    49 1   
    50    27    28 1   
    51    27    29 1   
    52    27    30 1   
@<TRIPOS>SUBSTRUCTURE
     1 64M         1 TEMP              0 ****  ****    0 ROOT
