@<TRIPOS>MOLECULE
64N
   48    50     1     0     0
SMALL
bcc


@<TRIPOS>ATOM
      1 C18         -5.9080     0.9650    -0.6420 ca         1 64N      -0.089000
      2 C14         -4.0270    -0.1860     0.3450 cp         1 64N      -0.023000
      3 C13         -1.6280     0.0540    -0.2430 ca         1 64N      -0.096000
      4 C12         -2.5960    -0.2120     0.7200 cp         1 64N      -0.107000
      5 C17         -6.7340    -0.1280    -0.3900 ca         1 64N      -0.150600
      6 C16         -6.1890    -1.2580     0.2120 ca         1 64N      -0.089000
      7 C15         -4.8500    -1.2890     0.5720 ca         1 64N      -0.133000
      8 C11         -2.1940    -0.4850     2.0340 ca         1 64N       0.129100
      9 C10         -0.8390    -0.5090     2.3410 ca         1 64N      -0.135000
     10 C8          -0.2810     0.0270     0.0760 ca         1 64N       0.096100
     11 N2          -9.0200    -0.8660    -0.1850 nt         1 64N      -0.670000
     12 C7           1.9200     0.2990    -0.6910 ca         1 64N       0.072100
     13 O4          -8.5150     0.7220    -1.7010 o          1 64N      -0.600100
     14 C5           4.0580    -0.8510    -0.6250 ca         1 64N      -0.166500
     15 C6           2.6890    -0.8470    -0.8340 ca         1 64N       0.048400
     16 O3          -3.0610    -0.7160     3.0440 oh         1 64N      -0.500100
     17 O1           6.7870    -1.6940    -0.2690 o          1 64N      -0.563100
     18 O2           0.5920     0.2910    -0.9520 os         1 64N      -0.225200
     19 C1           9.4710    -1.0760     0.2800 c3         1 64N      -0.077100
     20 C4           4.6910     0.3320    -0.2420 ca         1 64N       0.100600
     21 C19         -4.5750     0.9400    -0.2700 ca         1 64N      -0.133000
     22 C20         -8.1660    -0.0490    -0.8180 c          1 64N       0.682700
     23 C21          2.5680     1.4650    -0.3010 ca         1 64N       0.048400
     24 C2           8.3990    -0.0040     0.3000 c3         1 64N      -0.158400
     25 C3           7.0170    -0.5270    -0.0230 c          1 64N       0.674100
     26 C22          3.9300     1.4930    -0.0820 ca         1 64N      -0.166500
     27 CL2          1.6370     2.8990    -0.0960 cl         1 64N      -0.071400
     28 CL1          1.9020    -2.3070    -1.2980 cl         1 64N      -0.071400
     29 C9           0.1200    -0.2630     1.3710 ca         1 64N      -0.147000
     30 H1          -6.3110     1.8470    -1.1200 ha         1 64N       0.144000
     31 H2          -1.9330     0.2680    -1.2600 ha         1 64N       0.154000
     32 H3          -6.7870    -2.1440     0.3810 ha         1 64N       0.144000
     33 H4          -4.4420    -2.1970     0.9980 ha         1 64N       0.143500
     34 H5          -0.5290    -0.7200     3.3570 ha         1 64N       0.149000
     35 H6          -9.9990    -0.8390    -0.4190 hn         1 64N       0.313500
     36 H7          -8.7670    -1.3850     0.6380 hn         1 64N       0.313500
     37 H8           4.6130    -1.7650    -0.7580 ha         1 64N       0.168000
     38 H9          -3.9690    -0.5400     2.7700 ho         1 64N       0.432000
     39 H10          6.3740     1.3740     0.2210 hn         1 64N       0.319500
     40 H11          9.5420    -1.5570    -0.6950 hc         1 64N       0.046367
     41 H12         10.4410    -0.6320     0.5010 hc         1 64N       0.046367
     42 H13          9.2830    -1.8490     1.0240 hc         1 64N       0.046367
     43 H14         -3.9540     1.8080    -0.4510 ha         1 64N       0.143500
     44 H15          8.3620     0.4820     1.2800 hc         1 64N       0.059200
     45 H16          8.6400     0.7920    -0.4110 hc         1 64N       0.059200
     46 H17          4.4030     2.4180     0.2210 ha         1 64N       0.168000
     47 H18          1.1650    -0.2970     1.6490 ha         1 64N       0.146000
     48 N1           6.0570     0.4440    -0.0080 ns         1 64N      -0.479100
@<TRIPOS>BOND
     1     1     5 ar  
     2     1    21 ar  
     3     1    30 1   
     4     2     4 1   
     5     2     7 ar  
     6     2    21 ar  
     7     3     4 ar  
     8     3    10 ar  
     9     3    31 1   
    10     4     8 ar  
    11     5     6 ar  
    12     5    22 1   
    13     6     7 ar  
    14     6    32 1   
    15     7    33 1   
    16     8     9 ar  
    17     8    16 1   
    18     9    29 ar  
    19     9    34 1   
    20    10    18 1   
    21    10    29 ar  
    22    11    22 1   
    23    11    35 1   
    24    11    36 1   
    25    12    15 ar  
    26    12    18 1   
    27    12    23 ar  
    28    13    22 2   
    29    14    15 ar  
    30    14    20 ar  
    31    14    37 1   
    32    15    28 1   
    33    16    38 1   
    34    17    25 2   
    35    19    24 1   
    36    19    40 1   
    37    19    41 1   
    38    19    42 1   
    39    20    26 ar  
    40    20    48 1   
    41    21    43 1   
    42    23    26 ar  
    43    23    27 1   
    44    24    25 1   
    45    24    44 1   
    46    24    45 1   
    47    25    48 1   
    48    26    46 1   
    49    29    47 1   
    50    39    48 1   
@<TRIPOS>SUBSTRUCTURE
     1 64N         1 TEMP              0 ****  ****    0 ROOT
