@<TRIPOS>MOLECULE
64N
   48    50     1     0     0
SMALL
No Charge or Current Charge


@<TRIPOS>ATOM
      1 C18         -6.0020     0.8430    -0.8250 ca         1 64N      -0.071000
      2 C14         -4.0780    -0.0810     0.3860 cp         1 64N      -0.023000
      3 C13         -1.6420     0.3270    -0.0980 ca         1 64N      -0.078000
      4 C12         -2.6600     0.0340     0.8430 cp         1 64N      -0.107000
      5 C17         -6.7820    -0.2940    -0.5150 ca         1 64N      -0.150600
      6 C16         -6.1890    -1.3300     0.2450 ca         1 64N      -0.071000
      7 C15         -4.8580    -1.2220     0.6850 ca         1 64N      -0.115000
      8 C11         -2.2860    -0.1350     2.2020 ca         1 64N       0.129100
      9 C10         -0.9400    -0.0300     2.5920 ca         1 64N      -0.117000
     10 C8          -0.2960     0.4280     0.2890 ca         1 64N       0.096100
     11 N2          -8.9380    -1.4720    -0.6960 nt         1 64N      -0.603000
     12 C7           1.9990     0.5470    -0.4680 ca         1 64N       0.072100
     13 O4          -8.7350     0.5090    -1.6660 o          1 64N      -0.600100
     14 C5           3.9550    -0.8960    -0.2500 ca         1 64N      -0.148500
     15 C6           2.5750    -0.7400    -0.4670 ca         1 64N       0.140000
     16 O3          -3.2240    -0.3670     3.1650 oh         1 64N      -0.539100
     17 O1           6.6760    -2.1030     0.3990 o          1 64N      -0.563100
     18 O2           0.6460     0.7100    -0.6780 os         1 64N      -0.225200
     19 C1           9.3680    -0.8810    -0.6710 c3         1 64N      -0.077100
     20 C4           4.7800     0.2300    -0.0320 ca         1 64N       0.008000
     21 C19         -4.6720     0.9440    -0.3840 ca         1 64N      -0.115000
     22 C20         -8.2130    -0.3750    -1.0050 c          1 64N       0.615700
     23 C21          2.8180     1.6720    -0.2620 ca         1 64N       0.140000
     24 C2           8.5100    -0.5460     0.5700 c3         1 64N      -0.158400
     25 C3           7.0380    -0.9330     0.3670 c          1 64N       0.607100
     26 C22          4.1970     1.5110    -0.0460 ca         1 64N      -0.148500
     27 Cl2          2.1310     3.2960    -0.2610 cl         1 64N      -0.163000
     28 Cl1          1.5890    -2.1760    -0.7460 cl         1 64N      -0.163000
     29 C9           0.0570     0.2500     1.6410 ca         1 64N      -0.129000
     30 H1          -6.4260     1.6560    -1.4110 ha         1 64N       0.126000
     31 H2          -1.9010     0.4630    -1.1460 ha         1 64N       0.136000
     32 H3          -6.7440    -2.2300     0.5010 ha         1 64N       0.126000
     33 H4          -4.4190    -2.0430     1.2490 ha         1 64N       0.125500
     34 H5          -0.6700    -0.1560     3.6370 ha         1 64N       0.131000
     35 H6          -9.8920    -1.5370    -1.0170 hn         1 64N       0.313500
     36 H7          -8.5300    -2.2150    -0.1510 hn         1 64N       0.313500
     37 H8           4.3620    -1.9020    -0.2650 ha         1 64N       0.150000
     38 H9          -4.1070    -0.3100     2.7410 ho         1 64N       0.471000
     39 H10          6.6440     1.0460     0.2180 hn         1 64N       0.153000
     40 H11          9.0050    -0.3380    -1.5530 hc         1 64N       0.046367
     41 H12         10.4140    -0.5980    -0.5020 hc         1 64N       0.046367
     42 H13          9.3360    -1.9550    -0.8900 hc         1 64N       0.046367
     43 H14         -4.0950     1.8310    -0.6340 ha         1 64N       0.125500
     44 H15          8.9080    -1.1080     1.4230 hc         1 64N       0.059200
     45 H16          8.5950     0.5300     0.7650 hc         1 64N       0.059200
     46 H17          4.8130     2.3930     0.1150 ha         1 64N       0.150000
     47 H18          1.0900     0.3350     1.9670 ha         1 64N       0.128000
     48 N1           6.1820     0.1470     0.1900 ns         1 64N      -0.153000
@<TRIPOS>BOND
     1     1     5 ar  
     2     1    21 ar  
     3     1    30 1   
     4     2     4 1   
     5     2     7 ar  
     6     2    21 ar  
     7     3     4 ar  
     8     3    10 ar  
     9     3    31 1   
    10     4     8 ar  
    11     5     6 ar  
    12     5    22 1   
    13     6     7 ar  
    14     6    32 1   
    15     7    33 1   
    16     8     9 ar  
    17     8    16 1   
    18     9    29 ar  
    19     9    34 1   
    20    10    18 1   
    21    10    29 ar  
    22    11    22 1   
    23    11    35 1   
    24    11    36 1   
    25    12    15 ar  
    26    12    18 1   
    27    12    23 ar  
    28    13    22 2   
    29    14    15 ar  
    30    14    20 ar  
    31    14    37 1   
    32    15    28 1   
    33    16    38 1   
    34    17    25 2   
    35    19    24 1   
    36    19    40 1   
    37    19    41 1   
    38    19    42 1   
    39    20    26 ar  
    40    20    48 1   
    41    21    43 1   
    42    23    26 ar  
    43    23    27 1   
    44    24    25 1   
    45    24    44 1   
    46    24    45 1   
    47    25    48 1   
    48    26    46 1   
    49    29    47 1   
    50    39    48 1   
@<TRIPOS>SUBSTRUCTURE
     1 64N         1 TEMP              0 ****  ****    0 ROOT
