@<TRIPOS>MOLECULE
64O
   50    52     1     0     0
SMALL
No Charge or Current Charge


@<TRIPOS>ATOM
      1 O4           8.3480    -1.8620    -1.6090 o          1 64O      -0.621100
      2 N3           9.9880    -0.3760    -1.3580 nt         1 64O      -0.618000
      3 C15          4.6760     1.4090     0.7800 ca         1 64O      -0.062000
      4 C16          6.0290     1.3310     0.4050 ca         1 64O      -0.154500
      5 C14          3.7850     0.3390     0.5260 cp         1 64O      -0.056000
      6 C13          1.3510     0.0380    -0.0420 ca         1 64O      -0.088000
      7 C12          2.3370     0.4160     0.9040 cp         1 64O      -0.029000
      8 N2           7.9110     0.1780    -0.5880 ns         1 64O      -0.165000
      9 C4          -5.0850    -0.1860    -0.1110 ca         1 64O       0.006000
     10 C5          -4.4070     0.9460    -0.6160 ca         1 64O      -0.148500
     11 O1          -7.2700     1.9210    -0.2470 o          1 64O      -0.564100
     12 N1          -6.4890    -0.2260     0.1150 ns         1 64O      -0.152000
     13 C6          -3.0160     0.9130    -0.8170 ca         1 64O       0.138500
     14 C3          -7.4780     0.7460     0.0300 c          1 64O       0.606100
     15 C2          -8.8900     0.2410     0.3600 c3         1 64O      -0.157400
     16 C1          -9.7720     0.1340    -0.9050 c3         1 64O      -0.078100
     17 C7          -2.2830    -0.2510    -0.5160 ca         1 64O       0.076100
     18 C8          -0.0180     0.0950     0.2620 ca         1 64O       0.097100
     19 C11          1.8990     0.8490     2.1890 ca         1 64O       0.121100
     20 C19          5.6530    -0.8850    -0.5040 ca         1 64O      -0.154500
     21 C9          -0.4320     0.5320     1.5360 ca         1 64O      -0.130000
     22 C18          8.7070    -0.7680    -1.2110 c          1 64O       0.658100
     23 C10          0.5270     0.9050     2.4930 ca         1 64O      -0.177000
     24 C17          6.5320     0.1860    -0.2380 ca         1 64O      -0.002000
     25 C21         -2.9550    -1.3850    -0.0200 ca         1 64O       0.138500
     26 C22         -4.3450    -1.3480     0.1790 ca         1 64O      -0.148500
     27 Cl1         -2.2070     2.3480    -1.4470 cl         1 64O      -0.163000
     28 C20          4.3000    -0.8050    -0.1290 ca         1 64O      -0.062000
     29 H1          10.6420    -1.0030    -1.8030 hn         1 64O       0.314500
     30 H2          10.2880     0.5290    -1.0290 hn         1 64O       0.314500
     31 H3           4.3120     2.3120     1.2630 ha         1 64O       0.118000
     32 H4           6.6870     2.1710     0.6150 ha         1 64O       0.125500
     33 H5           1.6540    -0.2920    -1.0320 ha         1 64O       0.138000
     34 H6           8.3980     1.0260    -0.3310 hn         1 64O       0.142000
     35 H7          -4.9360     1.8590    -0.8650 ha         1 64O       0.149500
     36 H8          -6.8330    -1.1390     0.3820 hn         1 64O       0.153000
     37 H9          -8.8380    -0.7510     0.8260 hc         1 64O       0.059700
     38 H10         -9.3650     0.9490     1.0500 hc         1 64O       0.059700
     39 H11        -10.7740    -0.2260    -0.6440 hc         1 64O       0.046367
     40 H12         -9.8760     1.1110    -1.3920 hc         1 64O       0.046367
     41 H13         -9.3340    -0.5670    -1.6270 hc         1 64O       0.046367
     42 H14          2.2880     1.4380     3.9730 ho         1 64O       0.461000
     43 H15          5.9950    -1.7880    -0.9990 ha         1 64O       0.125500
     44 H16         -1.4860     0.5840     1.7970 ha         1 64O       0.125000
     45 H17          0.1950     1.2330     3.4750 ha         1 64O       0.113000
     46 H18         -4.8470    -2.2320     0.5650 ha         1 64O       0.149500
     47 H19          3.6430    -1.6460    -0.3400 ha         1 64O       0.118000
     48 O3           2.7900     1.1930     3.1660 oh         1 64O      -0.528100
     49 O2          -0.9190    -0.2830    -0.7110 os         1 64O      -0.226200
     50 Cl2         -2.0700    -2.8610     0.3640 cl         1 64O      -0.163000
@<TRIPOS>BOND
     1     1    22 2   
     2     2    22 1   
     3     2    29 1   
     4     2    30 1   
     5     3     4 ar  
     6     3     5 ar  
     7     3    31 1   
     8     4    24 ar  
     9     4    32 1   
    10     5     7 1   
    11     5    28 ar  
    12     6     7 ar  
    13     6    18 ar  
    14     6    33 1   
    15     7    19 ar  
    16     8    22 1   
    17     8    24 1   
    18     8    34 1   
    19     9    10 ar  
    20     9    12 1   
    21     9    26 ar  
    22    10    13 ar  
    23    10    35 1   
    24    11    14 2   
    25    12    14 1   
    26    12    36 1   
    27    13    17 ar  
    28    13    27 1   
    29    14    15 1   
    30    15    16 1   
    31    15    37 1   
    32    15    38 1   
    33    16    39 1   
    34    16    40 1   
    35    16    41 1   
    36    17    25 ar  
    37    17    49 1   
    38    18    21 ar  
    39    18    49 1   
    40    19    23 ar  
    41    19    48 1   
    42    20    24 ar  
    43    20    28 ar  
    44    20    43 1   
    45    21    23 ar  
    46    21    44 1   
    47    23    45 1   
    48    25    26 ar  
    49    25    50 1   
    50    26    46 1   
    51    28    47 1   
    52    42    48 1   
@<TRIPOS>SUBSTRUCTURE
     1 64O         1 TEMP              0 ****  ****    0 ROOT
