@<TRIPOS>MOLECULE
64O
   50    52     1     0     0
SMALL
abcg2


@<TRIPOS>ATOM
      1 O4           7.8720    -1.5890    -1.9440 o          1 64O      -0.621100
      2 N3           9.7710    -0.4680    -1.4340 nt         1 64O      -0.618000
      3 C15          4.6290     1.4350     0.8300 ca         1 64O      -0.062000
      4 C16          5.9570     1.3240     0.4630 ca         1 64O      -0.154500
      5 C14          3.7390     0.3770     0.6390 cp         1 64O      -0.056000
      6 C13          1.3590     0.0850     0.0220 ca         1 64O      -0.088000
      7 C12          2.3020     0.4840     0.9640 cp         1 64O      -0.029000
      8 N2           7.8120     0.1120    -0.4130 ns         1 64O      -0.165000
      9 C4          -4.9570    -0.3420    -0.1860 ca         1 64O       0.006000
     10 C5          -4.3420     0.7880    -0.7270 ca         1 64O      -0.148500
     11 O1          -7.1370     1.4430    -0.9280 o          1 64O      -0.564100
     12 N1          -6.3280    -0.4660     0.0050 ns         1 64O      -0.152000
     13 C6          -2.9650     0.8020    -0.8710 ca         1 64O       0.138500
     14 C3          -7.3290     0.3910    -0.3510 c          1 64O       0.606100
     15 C2          -8.7050    -0.0860     0.0600 c3         1 64O      -0.157400
     16 C1          -9.8300     0.6690    -0.6240 c3         1 64O      -0.078100
     17 C7          -2.1680    -0.2760    -0.5110 ca         1 64O       0.076100
     18 C8           0.0010     0.1530     0.2870 ca         1 64O       0.097100
     19 C11          1.8490     0.9510     2.2070 ca         1 64O       0.121100
     20 C19          5.5790    -0.9250    -0.2810 ca         1 64O      -0.154500
     21 C9          -0.4460     0.6270     1.5070 ca         1 64O      -0.130000
     22 C18          8.4430    -0.7070    -1.3200 c          1 64O       0.658100
     23 C10          0.4850     1.0210     2.4590 ca         1 64O      -0.177000
     24 C17          6.4550     0.1460    -0.1020 ca         1 64O      -0.002000
     25 C21         -2.7990    -1.3850     0.0390 ca         1 64O       0.138500
     26 C22         -4.1690    -1.4300     0.1970 ca         1 64O      -0.148500
     27 CL1         -2.2010     2.1980    -1.5320 cl         1 64O      -0.163000
     28 C20          4.2470    -0.7950     0.0810 ca         1 64O      -0.062000
     29 H1          10.2670    -0.9250    -2.1800 hn         1 64O       0.314500
     30 H2          10.2080     0.3480    -1.0410 hn         1 64O       0.314500
     31 H3           4.2830     2.3730     1.2420 ha         1 64O       0.118000
     32 H4           6.6180     2.1700     0.6060 ha         1 64O       0.125500
     33 H5           1.6930    -0.2710    -0.9450 ha         1 64O       0.138000
     34 H6           8.3530     0.8730    -0.0330 hn         1 64O       0.142000
     35 H7          -4.9140     1.6480    -1.0300 ha         1 64O       0.149500
     36 H8          -6.6200    -1.3210     0.4570 hn         1 64O       0.153000
     37 H9          -8.7910    -1.1580    -0.1330 hc         1 64O       0.059700
     38 H10         -8.7800     0.0270     1.1470 hc         1 64O       0.059700
     39 H11        -10.7910     0.2940    -0.2740 hc         1 64O       0.046367
     40 H12         -9.7910     1.7350    -0.4070 hc         1 64O       0.046367
     41 H13         -9.7980     0.5440    -1.7060 hc         1 64O       0.046367
     42 H14          2.3350     1.6060     3.9350 ho         1 64O       0.461000
     43 H15          5.9230    -1.8610    -0.6880 ha         1 64O       0.125500
     44 H16         -1.5000     0.7020     1.7430 ha         1 64O       0.125000
     45 H17          0.1320     1.3810     3.4190 ha         1 64O       0.113000
     46 H18         -4.6280    -2.3130     0.6220 ha         1 64O       0.149500
     47 H19          3.5900    -1.6440    -0.0620 ha         1 64O       0.118000
     48 O3           2.7690     1.3020     3.1300 oh         1 64O      -0.528100
     49 O2          -0.8320    -0.2620    -0.7260 os         1 64O      -0.226200
     50 CL2         -1.8360    -2.7310     0.5130 cl         1 64O      -0.163000
@<TRIPOS>BOND
     1     1    22 2   
     2     2    22 1   
     3     2    29 1   
     4     2    30 1   
     5     3     4 ar  
     6     3     5 ar  
     7     3    31 1   
     8     4    24 ar  
     9     4    32 1   
    10     5     7 1   
    11     5    28 ar  
    12     6     7 ar  
    13     6    18 ar  
    14     6    33 1   
    15     7    19 ar  
    16     8    22 1   
    17     8    24 1   
    18     8    34 1   
    19     9    10 ar  
    20     9    12 1   
    21     9    26 ar  
    22    10    13 ar  
    23    10    35 1   
    24    11    14 2   
    25    12    14 1   
    26    12    36 1   
    27    13    17 ar  
    28    13    27 1   
    29    14    15 1   
    30    15    16 1   
    31    15    37 1   
    32    15    38 1   
    33    16    39 1   
    34    16    40 1   
    35    16    41 1   
    36    17    25 ar  
    37    17    49 1   
    38    18    21 ar  
    39    18    49 1   
    40    19    23 ar  
    41    19    48 1   
    42    20    24 ar  
    43    20    28 ar  
    44    20    43 1   
    45    21    23 ar  
    46    21    44 1   
    47    23    45 1   
    48    25    26 ar  
    49    25    50 1   
    50    26    46 1   
    51    28    47 1   
    52    42    48 1   
@<TRIPOS>SUBSTRUCTURE
     1 64O         1 TEMP              0 ****  ****    0 ROOT
