@<TRIPOS>MOLECULE
64Q
   31    33     1     0     0
SMALL
bcc


@<TRIPOS>ATOM
      1 C10          4.0430     0.2220    -0.0860 ca         1 64Q      -0.114000
      2 C17         -2.3100     0.7680    -0.2550 cc         1 64Q       0.379500
      3 C02         -2.9750    -1.3310     0.2150 cd         1 64Q       0.498600
      4 C03         -1.6370    -1.7880     0.1820 cd         1 64Q      -0.400300
      5 C04         -0.6120    -0.9190    -0.0860 cc         1 64Q       0.292300
      6 N05          0.6870    -1.2790    -0.1840 nu         1 64Q      -0.653000
      7 C06          1.7880    -0.4980     0.2360 ca         1 64Q       0.110600
      8 C07          1.6960     0.2960     1.3760 ca         1 64Q      -0.147000
      9 C08          2.7740     1.0750     1.7650 ca         1 64Q      -0.109000
     10 C09          3.9510     1.0380     1.0330 ca         1 64Q      -0.125000
     11 C11          2.9680    -0.5530    -0.5110 ca         1 64Q      -0.079300
     12 C12          3.0620    -1.4140    -1.7340 c3         1 64Q      -0.047800
     13 N13         -0.9810     0.3810    -0.3360 na         1 64Q      -0.269000
     14 C14         -0.3140     1.5190    -0.7000 cc         1 64Q       0.325700
     15 N15         -1.1630     2.4940    -0.8070 nd         1 64Q      -0.349700
     16 N16         -2.4040     2.0470    -0.5300 nd         1 64Q      -0.083000
     17 N18         -3.3080    -0.0790     0.0170 nc         1 64Q      -0.653000
     18 H1           4.9650     0.1940    -0.6540 ha         1 64Q       0.138000
     19 H2          -3.9410    -2.6870     1.5480 hc         1 64Q       0.059367
     20 H3          -5.0400    -1.8550     0.4360 hc         1 64Q       0.059367
     21 H4          -4.0000    -3.1770    -0.1330 hc         1 64Q       0.059367
     22 H5          -1.4130    -2.8230     0.3990 ha         1 64Q       0.152000
     23 H6           0.8350    -2.2790    -0.2090 hn         1 64Q       0.450800
     24 H7           0.7850     0.2990     1.9630 ha         1 64Q       0.146000
     25 H8           2.6960     1.6950     2.6480 ha         1 64Q       0.143000
     26 H9           4.7980     1.6430     1.3310 ha         1 64Q       0.140000
     27 H10          3.0610    -2.4770    -1.4820 hc         1 64Q       0.048033
     28 H11          2.2180    -1.2450    -2.4030 hc         1 64Q       0.048033
     29 H12          3.9800    -1.2130    -2.2830 hc         1 64Q       0.048033
     30 H13          0.7430     1.5820    -0.8920 h5         1 64Q       0.084800
     31 C01         -4.0580    -2.3120     0.5290 c3         1 64Q      -0.151400
@<TRIPOS>BOND
     1     1    10 ar  
     2     1    11 ar  
     3     1    18 1   
     4     2    13 1   
     5     2    16 2   
     6     2    17 1   
     7     3     4 1   
     8     3    17 2   
     9     3    31 1   
    10     4     5 2   
    11     4    22 1   
    12     5     6 1   
    13     5    13 1   
    14     6     7 1   
    15     6    23 1   
    16     7     8 ar  
    17     7    11 ar  
    18     8     9 ar  
    19     8    24 1   
    20     9    10 ar  
    21     9    25 1   
    22    10    26 1   
    23    11    12 1   
    24    12    27 1   
    25    12    28 1   
    26    12    29 1   
    27    13    14 1   
    28    14    15 2   
    29    14    30 1   
    30    15    16 1   
    31    19    31 1   
    32    20    31 1   
    33    21    31 1   
@<TRIPOS>SUBSTRUCTURE
     1 64Q         1 TEMP              0 ****  ****    0 ROOT
