@<TRIPOS>MOLECULE
64Q
   31    33     1     0     0
SMALL
No Charge or Current Charge


@<TRIPOS>ATOM
      1 C10          4.2200    -0.0060     0.0190 ca         1 64Q      -0.096000
      2 C17         -2.5560     0.7820    -0.1170 cc         1 64Q       0.379500
      3 C02         -3.0110    -1.3790     0.3090 cd         1 64Q       0.433300
      4 C03         -1.6200    -1.6890     0.0920 cd         1 64Q      -0.317000
      5 C04         -0.6930    -0.7160    -0.2020 cc         1 64Q       0.380000
      6 N05          0.6430    -0.9640    -0.3960 nu         1 64Q      -0.985000
      7 C06          1.8080    -0.3710     0.1090 ca         1 64Q       0.249000
      8 C07          1.7440     0.4480     1.2540 ca         1 64Q      -0.129000
      9 C08          2.9050     1.0430     1.7740 ca         1 64Q      -0.091000
     10 C09          4.1430     0.8180     1.1540 ca         1 64Q      -0.107000
     11 C11          3.0600    -0.6080    -0.5100 ca         1 64Q      -0.079300
     12 C12          3.1790    -1.4950    -1.7480 c3         1 64Q      -0.047800
     13 N13         -1.2290     0.5570    -0.2000 na         1 64Q      -0.218300
     14 C14         -0.5920     1.6590    -0.6820 cc         1 64Q       0.325700
     15 N15         -1.5100     2.6160    -0.7500 nd         1 64Q      -0.349700
     16 N16         -2.7410     2.0640    -0.3900 nd         1 64Q      -0.083000
     17 N18         -3.5070    -0.1520     0.1880 nc         1 64Q      -0.653000
     18 H1           5.1870    -0.1760    -0.4490 ha         1 64Q       0.120000
     19 H2          -4.6630    -2.1390     1.4670 hc         1 64Q       0.059367
     20 H3          -4.6360    -2.6830    -0.2220 hc         1 64Q       0.059367
     21 H4          -3.5080    -3.3760     0.9550 hc         1 64Q       0.059367
     22 H5          -1.2950    -2.7180     0.1710 ha         1 64Q       0.134000
     23 H6           0.8080    -1.8440    -0.8880 hn         1 64Q       0.506000
     24 H7           0.7940     0.6170     1.7520 ha         1 64Q       0.128000
     25 H8           2.8440     1.6750     2.6580 ha         1 64Q       0.125000
     26 H9           5.0440     1.2770     1.5560 ha         1 64Q       0.122000
     27 H10          2.9110    -2.5330    -1.5170 hc         1 64Q       0.048033
     28 H11          2.5190    -1.1440    -2.5510 hc         1 64Q       0.048033
     29 H12          4.2000    -1.5020    -2.1480 hc         1 64Q       0.048033
     30 H13          0.4580     1.7170    -0.9390 h5         1 64Q       0.084800
     31 C01         -4.0080    -2.4510     0.6460 c3         1 64Q      -0.151400
@<TRIPOS>BOND
     1     1    10 ar  
     2     1    11 ar  
     3     1    18 1   
     4     2    13 1   
     5     2    16 2   
     6     2    17 1   
     7     3     4 1   
     8     3    17 2   
     9     3    31 1   
    10     4     5 2   
    11     4    22 1   
    12     5     6 1   
    13     5    13 1   
    14     6     7 1   
    15     6    23 1   
    16     7     8 ar  
    17     7    11 ar  
    18     8     9 ar  
    19     8    24 1   
    20     9    10 ar  
    21     9    25 1   
    22    10    26 1   
    23    11    12 1   
    24    12    27 1   
    25    12    28 1   
    26    12    29 1   
    27    13    14 1   
    28    14    15 2   
    29    14    30 1   
    30    15    16 1   
    31    19    31 1   
    32    20    31 1   
    33    21    31 1   
@<TRIPOS>SUBSTRUCTURE
     1 64Q         1 TEMP              0 ****  ****    0 ROOT
