@<TRIPOS>MOLECULE
64R
   24    25     1     0     0
SMALL
bcc


@<TRIPOS>ATOM
      1 C13         -1.6920     1.0710    -0.0280 ca         1 64R      -0.147000
      2 C01         -4.1800     0.7750    -0.1910 c3         1 64R      -0.045800
      3 C02         -2.7940     0.2170    -0.0460 ca         1 64R      -0.065300
      4 C03         -2.5720    -1.1530     0.0570 ca         1 64R      -0.128000
      5 C04         -1.2860    -1.6690     0.1610 ca         1 64R      -0.116000
      6 C05         -0.2030    -0.8110     0.1850 ca         1 64R       0.077100
      7 O06          1.0600    -1.2820     0.3360 os         1 64R      -0.310900
      8 C07          2.0590    -0.5450    -0.3610 c6         1 64R       0.073100
      9 C08          3.4020    -1.1450    -0.0190 c3         1 64R      -0.080100
     10 C09          1.9750     0.9390    -0.0190 c          1 64R       0.684500
     11 O10          2.9510     1.6600     0.0340 o          1 64R      -0.606500
     12 N11          0.7140     1.3890     0.1690 ns         1 64R      -0.469100
     13 C12         -0.4070     0.5650     0.0920 ca         1 64R       0.014600
     14 H1          -1.8320     2.1430    -0.0990 ha         1 64R       0.135000
     15 H2          -4.3380     1.1830    -1.1910 hc         1 64R       0.044367
     16 H3          -4.9360     0.0090    -0.0260 hc         1 64R       0.044367
     17 H4          -4.3620     1.5840     0.5170 hc         1 64R       0.044367
     18 H5          -3.4130    -1.8350     0.0450 ha         1 64R       0.136000
     19 H6          -1.1250    -2.7370     0.2400 ha         1 64R       0.149000
     20 H7           1.8810    -0.6270    -1.4440 h1         1 64R       0.063700
     21 H8           3.4190    -2.2000    -0.2870 hc         1 64R       0.057700
     22 H9           4.1910    -0.6470    -0.5780 hc         1 64R       0.057700
     23 H10          3.6220    -1.0500     1.0440 hc         1 64R       0.057700
     24 H11          0.5810     2.3810     0.3120 hn         1 64R       0.330500
@<TRIPOS>BOND
     1     1     3 ar  
     2     1    13 ar  
     3     1    14 1   
     4     2     3 1   
     5     2    15 1   
     6     2    16 1   
     7     2    17 1   
     8     3     4 ar  
     9     4     5 ar  
    10     4    18 1   
    11     5     6 ar  
    12     5    19 1   
    13     6     7 1   
    14     6    13 ar  
    15     7     8 1   
    16     8     9 1   
    17     8    10 1   
    18     8    20 1   
    19     9    21 1   
    20     9    22 1   
    21     9    23 1   
    22    10    11 2   
    23    10    12 1   
    24    12    13 1   
    25    12    24 1   
@<TRIPOS>SUBSTRUCTURE
     1 64R         1 TEMP              0 ****  ****    0 ROOT
