@<TRIPOS>MOLECULE
64R
   24    25     1     0     0
SMALL
No Charge or Current Charge


@<TRIPOS>ATOM
      1 C13         -1.7220     1.0960    -0.0790 ca         1 64R      -0.129000
      2 C01         -4.2440     0.7910    -0.0920 c3         1 64R      -0.045800
      3 C02         -2.8320     0.2280    -0.0430 ca         1 64R      -0.065300
      4 C03         -2.6250    -1.1640     0.0410 ca         1 64R      -0.110000
      5 C04         -1.3210    -1.6890     0.0880 ca         1 64R      -0.098000
      6 C05         -0.2180    -0.8240     0.0370 ca         1 64R       0.077100
      7 O06          1.0640    -1.3380     0.0930 os         1 64R      -0.334100
      8 C07          2.1470    -0.5270    -0.4410 c6         1 64R       0.096300
      9 C08          3.4720    -1.1710     0.0490 c3         1 64R      -0.080100
     10 C09          2.0170     0.9670    -0.0200 c          1 64R       0.542000
     11 O10          2.9500     1.6650     0.3640 o          1 64R      -0.531000
     12 N11          0.7120     1.4100    -0.0170 ns         1 64R      -0.143000
     13 C12         -0.4200     0.5700    -0.0390 ca         1 64R      -0.078000
     14 H1          -1.8730     2.1720    -0.1320 ha         1 64R       0.117000
     15 H2          -4.5910     0.8850    -1.1280 hc         1 64R       0.044367
     16 H3          -4.9510     0.1440     0.4410 hc         1 64R       0.044367
     17 H4          -4.2950     1.7840     0.3700 hc         1 64R       0.044367
     18 H5          -3.4770    -1.8410     0.0730 ha         1 64R       0.118000
     19 H6          -1.1650    -2.7630     0.1580 ha         1 64R       0.131000
     20 H7           2.0980    -0.5560    -1.5390 h1         1 64R       0.063700
     21 H8           3.5340    -2.2220    -0.2550 hc         1 64R       0.057700
     22 H9           4.3430    -0.6540    -0.3730 hc         1 64R       0.057700
     23 H10          3.5540    -1.1300     1.1420 hc         1 64R       0.057700
     24 H11          0.5570     2.3850     0.2060 hn         1 64R       0.164000
@<TRIPOS>BOND
     1     1     3 ar  
     2     1    13 ar  
     3     1    14 1   
     4     2     3 1   
     5     2    15 1   
     6     2    16 1   
     7     2    17 1   
     8     3     4 ar  
     9     4     5 ar  
    10     4    18 1   
    11     5     6 ar  
    12     5    19 1   
    13     6     7 1   
    14     6    13 ar  
    15     7     8 1   
    16     8     9 1   
    17     8    10 1   
    18     8    20 1   
    19     9    21 1   
    20     9    22 1   
    21     9    23 1   
    22    10    11 2   
    23    10    12 1   
    24    12    13 1   
    25    12    24 1   
@<TRIPOS>SUBSTRUCTURE
     1 64R         1 TEMP              0 ****  ****    0 ROOT
