@<TRIPOS>MOLECULE
64S
   32    33     1     0     0
SMALL
No Charge or Current Charge


@<TRIPOS>ATOM
      1 C10         -2.3080    -0.0950     0.0070 ca         1 64S       0.155100
      2 C13         -1.4860     1.0550     0.0040 ca         1 64S       0.107100
      3 C15         -1.3440     3.5310     0.0010 c3         1 64S       0.144900
      4 C17          0.5050    -0.3790     0.0020 ca         1 64S      -0.176000
      5 C01          4.9000     1.7890    -0.0080 c3         1 64S      -0.115100
      6 C02          4.2880     0.3800    -0.0060 c3         1 64S       0.231800
      7 C04          1.9070    -0.5890    -0.0000 ca         1 64S       0.404900
      8 N05          2.4360    -1.8250     0.0000 nb         1 64S      -0.292000
      9 C06          1.5660    -2.8510     0.0030 ca         1 64S       0.166900
     10 N07          0.2220    -2.7640     0.0050 nb         1 64S      -0.217000
     11 C08         -0.3210    -1.5290     0.0050 ca         1 64S       0.069000
     12 C09         -1.7180    -1.3780     0.0070 ca         1 64S      -0.187000
     13 O11         -3.6840     0.0750     0.0090 os         1 64S      -0.318100
     14 C12         -4.6020    -1.0330     0.0120 c3         1 64S       0.142900
     15 O14         -2.0930     2.3020     0.0040 os         1 64S      -0.317100
     16 C16         -0.0800     0.9100     0.0020 ca         1 64S      -0.153000
     17 H1          -0.7080     3.6020     0.8930 h1         1 64S       0.040367
     18 H2          -0.7110     3.6000    -0.8920 h1         1 64S       0.040367
     19 H3          -2.0260     4.3900     0.0020 h1         1 64S       0.040367
     20 H4           4.5930     2.3500     0.8830 hc         1 64S       0.042700
     21 H5           5.9950     1.7240    -0.0100 hc         1 64S       0.042700
     22 H6           4.5900     2.3480    -0.8990 hc         1 64S       0.042700
     23 H7           4.6360    -0.1660    -0.8950 h1         1 64S       0.057200
     24 H8           4.6390    -0.1640     0.8830 h1         1 64S       0.057200
     25 H9           2.4100     1.3980    -0.0040 hn         1 64S       0.491000
     26 H10          1.9910    -3.8530     0.0030 h5         1 64S       0.041100
     27 H11         -2.3310    -2.2740     0.0090 ha         1 64S       0.141000
     28 H12         -4.4630    -1.6570    -0.8800 h1         1 64S       0.045033
     29 H13         -4.4600    -1.6550     0.9050 h1         1 64S       0.045033
     30 H14         -5.6360    -0.6690     0.0140 h1         1 64S       0.045033
     31 H15          0.5550     1.7890    -0.0000 ha         1 64S       0.110000
     32 N03          2.8190     0.4670    -0.0030 nu         1 64S      -0.929100
@<TRIPOS>BOND
     1     1     2 ar  
     2     1    12 ar  
     3     1    13 1   
     4     2    15 1   
     5     2    16 ar  
     6     3    15 1   
     7     3    17 1   
     8     3    18 1   
     9     3    19 1   
    10     4     7 ar  
    11     4    11 ar  
    12     4    16 ar  
    13     5     6 1   
    14     5    20 1   
    15     5    21 1   
    16     5    22 1   
    17     6    23 1   
    18     6    24 1   
    19     6    32 1   
    20     7     8 ar  
    21     7    32 1   
    22     8     9 ar  
    23     9    10 ar  
    24     9    26 1   
    25    10    11 ar  
    26    11    12 ar  
    27    12    27 1   
    28    13    14 1   
    29    14    28 1   
    30    14    29 1   
    31    14    30 1   
    32    16    31 1   
    33    25    32 1   
@<TRIPOS>SUBSTRUCTURE
     1 64S         1 TEMP              0 ****  ****    0 ROOT
