@<TRIPOS>MOLECULE
64S
   32    33     1     0     0
SMALL
bcc


@<TRIPOS>ATOM
      1 C10         -2.2860    -0.1020     0.0150 ca         1 64S       0.155100
      2 C13         -1.4790     1.0780    -0.0030 ca         1 64S       0.107100
      3 C15         -1.4330     3.4380    -0.0400 c3         1 64S       0.121700
      4 C17          0.5040    -0.3070    -0.0040 ca         1 64S      -0.306600
      5 C01          4.9040     1.6890     0.0920 c3         1 64S      -0.115100
      6 C02          4.2250     0.3440    -0.0820 c3         1 64S       0.231800
      7 C04          1.9240    -0.5210    -0.0150 ca         1 64S       0.733200
      8 N05          2.4220    -1.7480     0.0000 nb         1 64S      -0.818000
      9 C06          1.5560    -2.7650     0.0280 ca         1 64S       0.692900
     10 N07          0.2540    -2.7130     0.0350 nb         1 64S      -0.743000
     11 C08         -0.2870    -1.4650     0.0180 ca         1 64S       0.462600
     12 C09         -1.6920    -1.3370     0.0260 ca         1 64S      -0.270300
     13 O11         -3.6030     0.1210     0.0190 os         1 64S      -0.294900
     14 C12         -4.4730    -0.9940     0.0350 c3         1 64S       0.119700
     15 O14         -2.1650     2.2290    -0.0100 os         1 64S      -0.293900
     16 C16         -0.1140     0.9640    -0.0100 ca         1 64S      -0.171000
     17 H1          -0.7950     3.5480     0.8410 h1         1 64S       0.040367
     18 H2          -0.8120     3.5140    -0.9370 h1         1 64S       0.040367
     19 H3          -2.1630     4.2430    -0.0490 h1         1 64S       0.040367
     20 H4           4.6460     2.1410     1.0500 hc         1 64S       0.042700
     21 H5           5.9850     1.5650     0.0580 hc         1 64S       0.042700
     22 H6           4.6270     2.3840    -0.7020 hc         1 64S       0.042700
     23 H7           4.5250    -0.1110    -1.0310 h1         1 64S       0.057200
     24 H8           4.5390    -0.3410     0.7070 h1         1 64S       0.057200
     25 H9           2.4290     1.4380    -0.1370 hn         1 64S       0.435800
     26 H10          2.0040    -3.7550     0.0430 h5         1 64S       0.041100
     27 H11         -2.2780    -2.2470     0.0430 ha         1 64S       0.159000
     28 H12         -4.3370    -1.6270    -0.8450 h1         1 64S       0.045033
     29 H13         -4.3370    -1.6030     0.9320 h1         1 64S       0.045033
     30 H14         -5.4840    -0.5960     0.0290 h1         1 64S       0.045033
     31 H15          0.4900     1.8610    -0.0170 ha         1 64S       0.128000
     32 N03          2.7850     0.5040    -0.0330 nu         1 64S      -0.873900
@<TRIPOS>BOND
     1     1     2 ar  
     2     1    12 ar  
     3     1    13 1   
     4     2    15 1   
     5     2    16 ar  
     6     3    15 1   
     7     3    17 1   
     8     3    18 1   
     9     3    19 1   
    10     4     7 ar  
    11     4    11 ar  
    12     4    16 ar  
    13     5     6 1   
    14     5    20 1   
    15     5    21 1   
    16     5    22 1   
    17     6    23 1   
    18     6    24 1   
    19     6    32 1   
    20     7     8 ar  
    21     7    32 1   
    22     8     9 ar  
    23     9    10 ar  
    24     9    26 1   
    25    10    11 ar  
    26    11    12 ar  
    27    12    27 1   
    28    13    14 1   
    29    14    28 1   
    30    14    29 1   
    31    14    30 1   
    32    16    31 1   
    33    25    32 1   
@<TRIPOS>SUBSTRUCTURE
     1 64S         1 TEMP              0 ****  ****    0 ROOT
