@<TRIPOS>MOLECULE
64U
   57    59     1     0     0
SMALL
No Charge or Current Charge


@<TRIPOS>ATOM
      1 C11         -5.7840     0.1900    -0.1400 c6         1 64U      -0.061700
      2 C12         -5.6460    -1.2970    -0.5840 c6         1 64U      -0.072400
      3 C13         -7.0110    -1.9000    -0.9990 c6         1 64U      -0.073400
      4 C16         -8.0550    -1.7650     0.1340 c6         1 64U      -0.074400
      5 C17         -8.2070    -0.2900     0.5740 c6         1 64U      -0.073400
      6 C18         -6.8420     0.3100     0.9940 c6         1 64U      -0.072400
      7 N           -3.7050     1.8850    -1.8240 n8         1 64U      -0.977200
      8 C15         -3.3000     0.9100    -0.7550 c3         1 64U       0.095500
      9 C1          -4.4230     0.8100     0.3170 c3         1 64U      -0.117400
     10 C14         -1.8990     1.1770    -0.0720 c          1 64U       0.620100
     11 O32         -1.4740     2.3200     0.0770 o          1 64U      -0.599100
     12 N1          -1.1310     0.0710     0.3710 n          1 64U      -0.402800
     13 C5           0.2350     0.2220     0.9560 c5         1 64U       0.029700
     14 C7           1.2760     0.9690     0.0600 c          1 64U       0.602100
     15 O22          1.2350     1.1360    -1.1530 o          1 64U      -0.578100
     16 C2           0.6850    -1.2660     1.0820 c5         1 64U      -0.089400
     17 C3          -0.6500    -1.9920     1.3660 c5         1 64U      -0.093400
     18 C4          -1.5920    -1.3340     0.3290 c5         1 64U       0.107000
     19 N23          2.3070     1.4310     0.8510 ns         1 64U      -0.502900
     20 C24          3.4930     2.1230     0.3450 c3         1 64U       0.144300
     21 C25          4.6230     1.1420     0.0710 ca         1 64U      -0.090300
     22 C26          5.5800     0.8600     1.0660 ca         1 64U      -0.109000
     23 C27          6.6180    -0.0550     0.8150 ca         1 64U      -0.097000
     24 C28          6.7040    -0.6940    -0.4340 ca         1 64U      -0.105000
     25 C29          5.7510    -0.4180    -1.4280 ca         1 64U       0.123000
     26 C30          4.7140     0.4960    -1.1780 ca         1 64U      -0.096000
     27 Cl21         5.8540    -1.2210    -2.9890 cl         1 64U      -0.211000
     28 H11         -6.1390     0.7800    -0.9960 hc         1 64U       0.043700
     29 H12         -4.9530    -1.3850    -1.4310 hc         1 64U       0.038450
     30 H12A        -5.2150    -1.8930     0.2330 hc         1 64U       0.038450
     31 H13         -7.3790    -1.3950    -1.9030 hc         1 64U       0.040200
     32 H13A        -6.8850    -2.9590    -1.2650 hc         1 64U       0.040200
     33 H16         -9.0250    -2.1560    -0.2030 hc         1 64U       0.039200
     34 H16A        -7.7520    -2.3800     0.9930 hc         1 64U       0.039200
     35 H17         -8.6340     0.3000    -0.2480 hc         1 64U       0.040200
     36 H17A        -8.9170    -0.2220     1.4090 hc         1 64U       0.040200
     37 H18         -6.4810    -0.2010     1.8980 hc         1 64U       0.038450
     38 H18A        -6.9800     1.3650     1.2700 hc         1 64U       0.038450
     39 HNA         -3.7060     2.8320    -1.4250 hn         1 64U       0.404000
     40 H15         -3.2070    -0.0650    -1.2480 h1         1 64U       0.071700
     41 H1          -4.5960     1.8170     0.7170 hc         1 64U       0.050700
     42 H1A         -4.0440     0.2300     1.1670 hc         1 64U       0.050700
     43 H5           0.1730     0.7130     1.9370 h1         1 64U       0.067700
     44 H2           1.1320    -1.6330     0.1490 hc         1 64U       0.061700
     45 H2A          1.4260    -1.4150     1.8760 hc         1 64U       0.061700
     46 H3          -0.5810    -3.0790     1.2380 hc         1 64U       0.056200
     47 H3A         -0.9960    -1.8020     2.3890 hc         1 64U       0.056200
     48 H4          -2.6450    -1.4550     0.6120 h1         1 64U       0.054200
     49 H4A         -1.4480    -1.7590    -0.6740 h1         1 64U       0.054200
     50 HN23         2.2530     1.2340     1.8440 hn         1 64U       0.314500
     51 H24          3.2410     2.6710    -0.5730 h1         1 64U       0.071200
     52 H24A         3.8160     2.8610     1.0910 h1         1 64U       0.071200
     53 H26          5.5180     1.3480     2.0370 ha         1 64U       0.117000
     54 H27          7.3540    -0.2680     1.5870 ha         1 64U       0.118000
     55 H28          7.5050    -1.4030    -0.6310 ha         1 64U       0.129000
     56 H30          3.9800     0.6990    -1.9540 ha         1 64U       0.125000
     57 HN          -4.6860     1.7220    -2.0740 hn         1 64U       0.404000
@<TRIPOS>BOND
     1     1     2 1   
     2     1     6 1   
     3     1     9 1   
     4     1    28 1   
     5     2     3 1   
     6     2    29 1   
     7     2    30 1   
     8     3     4 1   
     9     3    31 1   
    10     3    32 1   
    11     4     5 1   
    12     4    33 1   
    13     4    34 1   
    14     5     6 1   
    15     5    35 1   
    16     5    36 1   
    17     6    37 1   
    18     6    38 1   
    19     7     8 1   
    20     7    39 1   
    21     7    57 1   
    22     8     9 1   
    23     8    10 1   
    24     8    40 1   
    25     9    41 1   
    26     9    42 1   
    27    10    11 2   
    28    10    12 1   
    29    12    13 1   
    30    12    18 1   
    31    13    14 1   
    32    13    16 1   
    33    13    43 1   
    34    14    15 2   
    35    14    19 1   
    36    16    17 1   
    37    16    44 1   
    38    16    45 1   
    39    17    18 1   
    40    17    46 1   
    41    17    47 1   
    42    18    48 1   
    43    18    49 1   
    44    19    20 1   
    45    19    50 1   
    46    20    21 1   
    47    20    51 1   
    48    20    52 1   
    49    21    22 ar  
    50    21    26 ar  
    51    22    23 ar  
    52    22    53 1   
    53    23    24 ar  
    54    23    54 1   
    55    24    25 ar  
    56    24    55 1   
    57    25    26 ar  
    58    25    27 1   
    59    26    56 1   
@<TRIPOS>SUBSTRUCTURE
     1 64U         1 TEMP              0 ****  ****    0 ROOT
