@<TRIPOS>MOLECULE
64U
   57    59     1     0     0
SMALL
bcc


@<TRIPOS>ATOM
      1 C11         -5.6640     0.2500     0.0660 c6         1 64U      -0.061700
      2 C12         -5.8000    -0.8620    -0.9760 c6         1 64U      -0.072400
      3 C13         -7.2540    -1.1130    -1.3630 c6         1 64U      -0.073400
      4 C16         -8.1200    -1.4020    -0.1430 c6         1 64U      -0.074400
      5 C17         -8.0070    -0.2800     0.8840 c6         1 64U      -0.073400
      6 C18         -6.5530    -0.0390     1.2770 c6         1 64U      -0.072400
      7 N           -3.5290     2.0410    -1.3160 n8         1 64U      -0.866800
      8 C15         -3.2280     0.8150    -0.6020 c3         1 64U       0.095500
      9 C1          -4.2190     0.4510     0.5190 c3         1 64U      -0.117400
     10 C14         -1.8460     0.9340     0.0250 c          1 64U       0.687100
     11 O32         -1.4160     2.0130     0.4150 o          1 64U      -0.599100
     12 N1          -1.1450    -0.1990     0.2010 n          1 64U      -0.469800
     13 C5           0.1470    -0.1530     0.8560 c5         1 64U       0.029700
     14 C7           1.1330     0.7100     0.0820 c          1 64U       0.669100
     15 O22          1.1110     0.7760    -1.1350 o          1 64U      -0.578100
     16 C2           0.6190    -1.6200     0.8510 c5         1 64U      -0.089400
     17 C3          -0.6700    -2.4180     0.6940 c5         1 64U      -0.093400
     18 C4          -1.5020    -1.5450    -0.2310 c5         1 64U       0.107000
     19 N23          2.0680     1.3010     0.8460 ns         1 64U      -0.569900
     20 C24          3.1950     2.0130     0.3080 c3         1 64U       0.144300
     21 C25          4.4640     1.1980     0.1950 ca         1 64U      -0.090300
     22 C26          5.6630     1.8540    -0.0770 ca         1 64U      -0.127000
     23 C27          6.8430     1.1410    -0.2130 ca         1 64U      -0.115000
     24 C28          6.8540    -0.2410    -0.0770 ca         1 64U      -0.123000
     25 C29          5.6590    -0.8830     0.1960 ca         1 64U       0.031400
     26 C30          4.4680    -0.1830     0.3330 ca         1 64U      -0.114000
     27 CL21         5.6410    -2.6090     0.3770 cl         1 64U      -0.119400
     28 H11         -6.0210     1.1860    -0.3860 hc         1 64U       0.043700
     29 H12         -5.2290    -0.6180    -1.8760 hc         1 64U       0.038450
     30 H12A        -5.3630    -1.7840    -0.5730 hc         1 64U       0.038450
     31 H13         -7.6450    -0.2320    -1.8830 hc         1 64U       0.040200
     32 H13A        -7.3120    -1.9410    -2.0740 hc         1 64U       0.040200
     33 H16         -9.1610    -1.5410    -0.4430 hc         1 64U       0.039200
     34 H16A        -7.7990    -2.3450     0.3130 hc         1 64U       0.039200
     35 H17         -8.4260     0.6400     0.4620 hc         1 64U       0.040200
     36 H17A        -8.6010    -0.5130     1.7710 hc         1 64U       0.040200
     37 H18         -6.1680    -0.9260     1.7950 hc         1 64U       0.038450
     38 H18A        -6.4830     0.7890     1.9870 hc         1 64U       0.038450
     39 HNA         -3.6160     2.8100    -0.6630 hn         1 64U       0.348800
     40 H15         -3.2120     0.0130    -1.3440 h1         1 64U       0.071700
     41 H1          -4.1850     1.2450     1.2750 hc         1 64U       0.050700
     42 H1A         -3.8860    -0.4630     1.0250 hc         1 64U       0.050700
     43 H5           0.0380     0.2130     1.8820 h1         1 64U       0.067700
     44 H2           1.2760    -1.8080    -0.0020 hc         1 64U       0.061700
     45 H2A          1.1670    -1.8670     1.7580 hc         1 64U       0.061700
     46 H3          -0.5040    -3.4150     0.2900 hc         1 64U       0.056200
     47 H3A         -1.1720    -2.5220     1.6580 hc         1 64U       0.056200
     48 H4          -2.5690    -1.7330    -0.1240 h1         1 64U       0.054200
     49 H4A         -1.2280    -1.7020    -1.2780 h1         1 64U       0.054200
     50 HN23         2.0200     1.1890     1.8460 hn         1 64U       0.314500
     51 H24          2.9240     2.3900    -0.6800 h1         1 64U       0.071200
     52 H24A         3.3850     2.8880     0.9300 h1         1 64U       0.071200
     53 H26          5.6730     2.9330    -0.1780 ha         1 64U       0.135000
     54 H27          7.7680     1.6620    -0.4240 ha         1 64U       0.136000
     55 H28          7.7730    -0.8010    -0.1780 ha         1 64U       0.147000
     56 H30          3.5580    -0.7220     0.5600 ha         1 64U       0.143000
     57 HN          -4.4310     1.9480    -1.7660 hn         1 64U       0.348800
@<TRIPOS>BOND
     1     1     2 1   
     2     1     6 1   
     3     1     9 1   
     4     1    28 1   
     5     2     3 1   
     6     2    29 1   
     7     2    30 1   
     8     3     4 1   
     9     3    31 1   
    10     3    32 1   
    11     4     5 1   
    12     4    33 1   
    13     4    34 1   
    14     5     6 1   
    15     5    35 1   
    16     5    36 1   
    17     6    37 1   
    18     6    38 1   
    19     7     8 1   
    20     7    39 1   
    21     7    57 1   
    22     8     9 1   
    23     8    10 1   
    24     8    40 1   
    25     9    41 1   
    26     9    42 1   
    27    10    11 2   
    28    10    12 1   
    29    12    13 1   
    30    12    18 1   
    31    13    14 1   
    32    13    16 1   
    33    13    43 1   
    34    14    15 2   
    35    14    19 1   
    36    16    17 1   
    37    16    44 1   
    38    16    45 1   
    39    17    18 1   
    40    17    46 1   
    41    17    47 1   
    42    18    48 1   
    43    18    49 1   
    44    19    20 1   
    45    19    50 1   
    46    20    21 1   
    47    20    51 1   
    48    20    52 1   
    49    21    22 ar  
    50    21    26 ar  
    51    22    23 ar  
    52    22    53 1   
    53    23    24 ar  
    54    23    54 1   
    55    24    25 ar  
    56    24    55 1   
    57    25    26 ar  
    58    25    27 1   
    59    26    56 1   
@<TRIPOS>SUBSTRUCTURE
     1 64U         1 TEMP              0 ****  ****    0 ROOT
