@<TRIPOS>MOLECULE
64V
   64    68     1     0     0
SMALL
bcc


@<TRIPOS>ATOM
      1 C4          51.4030   -35.0210    56.1070 c6         1 64V      -0.087900
      2 C5          51.5770   -36.3870    55.4470 c6         1 64V       0.233500
      3 C6          51.7470   -37.4600    56.5200 c6         1 64V      -0.087900
      4 C7          52.8850   -37.0860    57.4590 c6         1 64V       0.166800
      5 C10         48.3460   -35.3820    54.5910 c          1 64V       0.915600
      6 C13         50.7720   -36.8700    53.1910 ca         1 64V       0.759200
      7 C15         49.9890   -37.3120    50.9520 ca         1 64V      -0.058000
      8 C17         51.7380   -37.3720    49.1770 ca         1 64V       0.488200
      9 C21         56.3810   -36.6970    49.8440 ca         1 64V       0.152600
     10 C22         57.5090   -37.4850    49.6230 ca         1 64V       0.089900
     11 C24         58.7200   -37.2590    50.2350 ca         1 64V      -0.136000
     12 C26         57.7210   -35.4080    51.3990 ca         1 64V      -0.136000
     13 N2          52.6610   -35.7890    58.0680 n3         1 64V      -0.714600
     14 C3          52.5610   -34.7550    57.0560 c6         1 64V       0.166800
     15 N8          50.5100   -36.7070    54.5040 nh         1 64V      -0.718300
     16 C9          49.1460   -36.6540    54.9800 c3         1 64V       0.045800
     17 O11         48.9260   -34.5110    53.9220 o          1 64V      -0.819300
     18 O12         47.1730   -35.3760    55.0100 o          1 64V      -0.819300
     19 C14         49.6990   -37.1390    52.2650 ca         1 64V      -0.246300
     20 C16         51.3280   -37.2200    50.5050 ca         1 64V      -0.365600
     21 N18         52.9820   -37.2790    48.7730 nb         1 64V      -0.770000
     22 C19         53.9330   -37.0330    49.7010 ca         1 64V       0.661200
     23 N20         55.1990   -36.9660    49.1660 nu         1 64V      -0.762300
     24 F23         57.4090   -38.5030    48.7580 f          1 64V      -0.142900
     25 C25         58.8250   -36.2130    51.1450 ca         1 64V       0.000800
     26 C27         56.5290   -35.6360    50.7350 ca         1 64V      -0.126000
     27 N28         60.0520   -35.9810    51.7920 na         1 64V       0.190300
     28 C29         60.4870   -34.8310    52.3590 cc         1 64V      -0.126300
     29 C30         61.7470   -35.0830    52.8330 cd         1 64V      -0.305300
     30 C31         61.9930   -36.4290    52.5010 cd         1 64V       0.306600
     31 C32         63.2180   -37.2360    52.7800 c3         1 64V       0.118100
     32 O33         63.7600   -37.6850    51.5580 oh         1 64V      -0.583800
     33 N34         60.9590   -36.9560    51.8750 nc         1 64V      -0.491800
     34 C35         53.6550   -36.8850    51.0470 ca         1 64V      -0.382600
     35 C36         52.3200   -36.9650    51.4810 ca         1 64V       0.533600
     36 N37         52.0300   -36.8020    52.7830 nb         1 64V      -0.829000
     37 H1          51.3600   -34.2390    55.3490 hc         1 64V       0.062950
     38 H2          50.4680   -34.9790    56.6730 hc         1 64V       0.062950
     39 H3          52.4970   -36.3580    54.8650 h1         1 64V       0.081700
     40 H4          50.8280   -37.5760    57.1020 hc         1 64V       0.062950
     41 H5          51.9630   -38.4250    56.0550 hc         1 64V       0.062950
     42 H6          52.9710   -37.8360    58.2490 h1         1 64V       0.022700
     43 H7          53.8380   -37.1050    56.8990 h1         1 64V       0.022700
     44 H8          49.1980   -37.5150    50.2400 ha         1 64V       0.123000
     45 H9          50.9940   -37.5780    48.4120 h4         1 64V       0.004100
     46 H10         59.5630   -37.9000    50.0150 ha         1 64V       0.175000
     47 H11         57.7720   -34.5950    52.1100 ha         1 64V       0.141000
     48 H12         53.7050   -36.2380    59.8220 h1         1 64V       0.020700
     49 H13         54.6930   -35.4100    58.6080 h1         1 64V       0.020700
     50 H14         53.4640   -34.5180    59.5160 h1         1 64V       0.020700
     51 H16         53.4980   -34.6700    56.4760 h1         1 64V       0.022700
     52 H17         52.4120   -33.7920    57.5510 h1         1 64V       0.022700
     53 H18         48.5930   -37.5400    54.6580 h1         1 64V       0.039200
     54 H19         49.1620   -36.7230    56.0690 h1         1 64V       0.039200
     55 H21         48.6750   -37.2100    52.5960 ha         1 64V       0.163000
     56 H22         55.2670   -37.3120    48.2210 hn         1 64V       0.454800
     57 H23         55.6930   -34.9760    50.9230 ha         1 64V       0.162000
     58 H24         59.8980   -33.9290    52.3670 h4         1 64V       0.176000
     59 H25         62.4050   -34.3960    53.3390 ha         1 64V       0.160000
     60 H26         62.9560   -38.0770    53.4350 h1         1 64V       0.025700
     61 H27         63.9240   -36.6100    53.3400 h1         1 64V       0.025700
     62 H28         64.4860   -38.2830    51.7600 ho         1 64V       0.398000
     63 H29         54.4300   -36.7180    51.7810 ha         1 64V       0.148000
     64 C1          53.6820   -35.4760    59.0410 c3         1 64V       0.157100
@<TRIPOS>BOND
     1     1     2 1   
     2     1    14 1   
     3     1    37 1   
     4     1    38 1   
     5     2     3 1   
     6     2    15 1   
     7     2    39 1   
     8     3     4 1   
     9     3    40 1   
    10     3    41 1   
    11     4    13 1   
    12     4    42 1   
    13     4    43 1   
    14     5    16 1   
    15     5    17 1   
    16     5    18 1   
    17     6    15 1   
    18     6    19 ar  
    19     6    36 ar  
    20     7    19 ar  
    21     7    20 ar  
    22     7    44 1   
    23     8    20 ar  
    24     8    21 ar  
    25     8    45 1   
    26     9    10 ar  
    27     9    23 1   
    28     9    26 ar  
    29    10    11 ar  
    30    10    24 1   
    31    11    25 ar  
    32    11    46 1   
    33    12    25 ar  
    34    12    26 ar  
    35    12    47 1   
    36    13    14 1   
    37    13    64 1   
    38    14    51 1   
    39    14    52 1   
    40    15    16 1   
    41    16    53 1   
    42    16    54 1   
    43    19    55 1   
    44    20    35 ar  
    45    21    22 ar  
    46    22    23 1   
    47    22    34 ar  
    48    23    56 1   
    49    25    27 1   
    50    26    57 1   
    51    27    28 1   
    52    27    33 1   
    53    28    29 2   
    54    28    58 1   
    55    29    30 1   
    56    29    59 1   
    57    30    31 1   
    58    30    33 2   
    59    31    32 1   
    60    31    60 1   
    61    31    61 1   
    62    32    62 1   
    63    34    35 ar  
    64    34    63 1   
    65    35    36 ar  
    66    48    64 1   
    67    49    64 1   
    68    50    64 1   
@<TRIPOS>SUBSTRUCTURE
     1 64V         1 TEMP              0 ****  ****    0 ROOT
