@<TRIPOS>MOLECULE
64V
   64    68     1     0     0
SMALL
No Charge or Current Charge


@<TRIPOS>ATOM
      1 C4          52.0560   -35.2890    56.1680 c6         1 64V      -0.087900
      2 C5          51.2710   -36.5430    55.7160 c6         1 64V       0.233500
      3 C6          50.5480   -37.1830    56.9270 c6         1 64V      -0.087900
      4 C7          51.5620   -37.4900    58.0520 c6         1 64V       0.166800
      5 C10         48.8460   -34.1920    53.8640 c          1 64V       0.705000
      6 C13         50.6290   -36.6530    53.2770 ca         1 64V       0.693900
      7 C15         49.9780   -37.4480    51.0840 ca         1 64V      -0.040000
      8 C17         51.7870   -37.8610    49.4910 ca         1 64V       0.422900
      9 C21         56.4960   -37.1460    49.9770 ca         1 64V       0.291000
     10 C22         57.6620   -37.8540    49.5960 ca         1 64V       0.125000
     11 C24         58.9350   -37.4140    49.9930 ca         1 64V      -0.118000
     12 C26         57.9190   -35.5230    51.1320 ca         1 64V      -0.118000
     13 N2          52.3050   -36.2690    58.4640 n3         1 64V      -0.714600
     14 C3          53.0230   -35.6470    57.3180 c6         1 64V       0.166800
     15 N8          50.3300   -36.2380    54.5930 nh         1 64V      -0.718300
     16 C9          49.1300   -35.3680    54.8620 c3         1 64V       0.045800
     17 O11         49.5420   -33.1870    53.9300 o          1 64V      -0.714000
     18 O12         47.9340   -34.3210    53.0580 o          1 64V      -0.714000
     19 C14         49.6230   -37.0380    52.3750 ca         1 64V      -0.163000
     20 C16         51.3430   -37.4550    50.7580 ca         1 64V      -0.235000
     21 N18         53.0900   -37.8850    49.1440 nb         1 64V      -0.770000
     22 C19         53.9640   -37.4860    50.0570 ca         1 64V       0.595900
     23 N20         55.2290   -37.5900    49.5650 nu         1 64V      -0.955900
     24 F23         57.5650   -38.9780    48.8430 f          1 64V      -0.178000
     25 C25         59.0770   -36.2440    50.7690 ca         1 64V       0.000800
     26 C27         56.6440   -35.9680    50.7340 ca         1 64V      -0.108000
     27 N28         60.3460   -35.8010    51.1630 na         1 64V       0.241000
     28 C29         60.7220   -34.4650    51.1800 cc         1 64V      -0.159000
     29 C30         61.9970   -34.5360    51.6690 cd         1 64V      -0.222000
     30 C31         62.2950   -35.9000    51.9180 cd         1 64V       0.241300
     31 C32         63.5990   -36.4450    52.4740 c3         1 64V       0.141300
     32 O33         64.6840   -36.3460    51.5330 oh         1 64V      -0.646000
     33 N34         61.2840   -36.7000    51.6200 nc         1 64V      -0.491800
     34 C35         53.6360   -37.0870    51.3500 ca         1 64V      -0.234000
     35 C36         52.2920   -37.0600    51.7160 ca         1 64V       0.403000
     36 N37         51.9390   -36.6710    52.9570 nb         1 64V      -0.829000
     37 H1          52.6230   -34.8760    55.3240 hc         1 64V       0.062950
     38 H2          51.3700   -34.5020    56.5040 hc         1 64V       0.062950
     39 H3          52.0120   -37.2880    55.3840 h1         1 64V       0.081700
     40 H4          49.7720   -36.5150    57.3220 hc         1 64V       0.062950
     41 H5          50.0460   -38.1090    56.6190 hc         1 64V       0.062950
     42 H6          51.0180   -37.9110    58.9110 h1         1 64V       0.022700
     43 H7          52.2640   -38.2620    57.7040 h1         1 64V       0.022700
     44 H8          49.2190   -37.7540    50.3660 ha         1 64V       0.105000
     45 H9          51.0800   -38.1830    48.7270 h4         1 64V       0.004100
     46 H10         59.8120   -37.9810    49.6900 ha         1 64V       0.157000
     47 H11         58.0020   -34.6150    51.7250 ha         1 64V       0.123000
     48 H12         52.6280   -36.9140    60.4660 h1         1 64V       0.020700
     49 H13         53.9800   -37.2410    59.3550 h1         1 64V       0.020700
     50 H14         53.6810   -35.5850    59.9370 h1         1 64V       0.020700
     51 H16         53.7950   -36.3330    56.9380 h1         1 64V       0.022700
     52 H17         53.5370   -34.7310    57.6450 h1         1 64V       0.022700
     53 H18         48.2320   -35.9990    54.8940 h1         1 64V       0.039200
     54 H19         49.2150   -34.9030    55.8520 h1         1 64V       0.039200
     55 H21         48.5820   -37.0270    52.6790 ha         1 64V       0.145000
     56 H22         55.2310   -38.1830    48.7400 hn         1 64V       0.510000
     57 H23         55.7740   -35.3760    51.0000 ha         1 64V       0.144000
     58 H24         60.0950   -33.6440    50.8570 h4         1 64V       0.158000
     59 H25         62.6670   -33.7000    51.8370 ha         1 64V       0.142000
     60 H26         63.4520   -37.4930    52.7680 h1         1 64V       0.025700
     61 H27         63.8430   -35.8850    53.3870 h1         1 64V       0.025700
     62 H28         65.4780   -36.7290    51.9690 ho         1 64V       0.437000
     63 H29         54.4000   -36.8220    52.0690 ha         1 64V       0.130000
     64 C1          53.1960   -36.5170    59.6150 c3         1 64V       0.157100
@<TRIPOS>BOND
     1     1     2 1   
     2     1    14 1   
     3     1    37 1   
     4     1    38 1   
     5     2     3 1   
     6     2    15 1   
     7     2    39 1   
     8     3     4 1   
     9     3    40 1   
    10     3    41 1   
    11     4    13 1   
    12     4    42 1   
    13     4    43 1   
    14     5    16 1   
    15     5    17 1   
    16     5    18 1   
    17     6    15 1   
    18     6    19 ar  
    19     6    36 ar  
    20     7    19 ar  
    21     7    20 ar  
    22     7    44 1   
    23     8    20 ar  
    24     8    21 ar  
    25     8    45 1   
    26     9    10 ar  
    27     9    23 1   
    28     9    26 ar  
    29    10    11 ar  
    30    10    24 1   
    31    11    25 ar  
    32    11    46 1   
    33    12    25 ar  
    34    12    26 ar  
    35    12    47 1   
    36    13    14 1   
    37    13    64 1   
    38    14    51 1   
    39    14    52 1   
    40    15    16 1   
    41    16    53 1   
    42    16    54 1   
    43    19    55 1   
    44    20    35 ar  
    45    21    22 ar  
    46    22    23 1   
    47    22    34 ar  
    48    23    56 1   
    49    25    27 1   
    50    26    57 1   
    51    27    28 1   
    52    27    33 1   
    53    28    29 2   
    54    28    58 1   
    55    29    30 1   
    56    29    59 1   
    57    30    31 1   
    58    30    33 2   
    59    31    32 1   
    60    31    60 1   
    61    31    61 1   
    62    32    62 1   
    63    34    35 ar  
    64    34    63 1   
    65    35    36 ar  
    66    48    64 1   
    67    49    64 1   
    68    50    64 1   
@<TRIPOS>SUBSTRUCTURE
     1 64V         1 TEMP              0 ****  ****    0 ROOT
