@<TRIPOS>MOLECULE
64W
   26    26     1     0     0
SMALL
No Charge or Current Charge


@<TRIPOS>ATOM
      1 C10        -24.4180     3.4530    15.2950 ca         1 64W      -0.187500
      2 C15        -22.2930     7.8280    12.4820 c3         1 64W       0.109300
      3 C05        -26.3540     2.1420    15.9860 ca         1 64W      -0.318500
      4 C06        -25.2540     4.3380    14.5800 ca         1 64W       0.061000
      5 C07        -26.6420     4.1090    14.5810 ca         1 64W      -0.187500
      6 C08        -27.1950     3.0210    15.2770 ca         1 64W       0.026000
      7 C09        -24.9630     2.3620    15.9940 ca         1 64W       0.026000
      8 N01        -26.9270    -0.4380    15.7630 n8         1 64W      -0.998100
      9 O03        -28.4830     0.9300    17.0500 o          1 64W      -0.548500
     10 O04        -26.1540     0.3450    17.9660 o          1 64W      -0.548500
     11 S02        -27.0430     0.7520    16.8780 sy         1 64W       1.132600
     12 C12        -23.5010     5.9610    13.6460 c          1 64W       0.662100
     13 N11        -24.7750     5.4600    13.8530 ns         1 64W      -0.163000
     14 N14        -23.5000     7.0900    12.8610 ns         1 64W      -0.525900
     15 O13        -22.4680     5.4820    14.0920 o          1 64W      -0.610100
     16 H101       -23.3430     3.5900    15.3230 ha         1 64W       0.134000
     17 H151       -22.5680     8.6860    11.8560 h1         1 64W       0.043367
     18 H153       -21.7800     8.1880    13.3840 h1         1 64W       0.043367
     19 H152       -21.6190     7.1700    11.9180 h1         1 64W       0.043367
     20 H071       -27.3030     4.7800    14.0370 ha         1 64W       0.134000
     21 H081       -28.2740     2.8690    15.2610 ha         1 64W       0.136000
     22 H091       -24.2990     1.6900    16.5380 ha         1 64W       0.136000
     23 H011       -27.8870    -0.7760    15.7430 hn         1 64W       0.469000
     24 H012       -26.8360     0.0890    14.8980 hn         1 64W       0.469000
     25 H111       -25.5080     5.9910    13.4020 hn         1 64W       0.147000
     26 H141       -24.3970     7.4250    12.5290 hn         1 64W       0.314500
@<TRIPOS>BOND
     1     1     4 ar  
     2     1     7 ar  
     3     1    16 1   
     4     2    14 1   
     5     2    17 1   
     6     2    18 1   
     7     2    19 1   
     8     3     6 ar  
     9     3     7 ar  
    10     3    11 1   
    11     4     5 ar  
    12     4    13 1   
    13     5     6 ar  
    14     5    20 1   
    15     6    21 1   
    16     7    22 1   
    17     8    11 1   
    18     8    23 1   
    19     8    24 1   
    20     9    11 2   
    21    10    11 2   
    22    12    13 1   
    23    12    14 1   
    24    12    15 2   
    25    13    25 1   
    26    14    26 1   
@<TRIPOS>SUBSTRUCTURE
     1 64W         1 TEMP              0 ****  ****    0 ROOT
