@<TRIPOS>MOLECULE
64W
   26    26     1     0     0
SMALL
abcg2


@<TRIPOS>ATOM
      1 C10        -24.4820     3.4650    15.1340 ca         1 64W      -0.187500
      2 C15        -22.2130     7.6920    12.6140 c3         1 64W       0.109300
      3 C05        -26.4080     2.2350    15.8890 ca         1 64W      -0.318500
      4 C06        -25.3180     4.4150    14.5290 ca         1 64W       0.061000
      5 C07        -26.7060     4.2410    14.6230 ca         1 64W      -0.187500
      6 C08        -27.2500     3.1660    15.2950 ca         1 64W       0.026000
      7 C09        -25.0310     2.3900    15.8050 ca         1 64W       0.026000
      8 N01        -26.7530    -0.3800    15.7220 n8         1 64W      -0.998100
      9 O03        -28.5020     1.0950    16.9480 o          1 64W      -0.548500
     10 O04        -26.2730     0.5920    17.9530 o          1 64W      -0.548500
     11 S02        -27.0750     0.8630    16.7690 sy         1 64W       1.132600
     12 C12        -23.5810     5.9710    13.6600 c          1 64W       0.662100
     13 N11        -24.8770     5.5170    13.8250 ns         1 64W      -0.163000
     14 N14        -23.4830     7.0540    12.8630 ns         1 64W      -0.525900
     15 O13        -22.6120     5.4470    14.1860 o          1 64W      -0.610100
     16 H101       -23.4110     3.5610    15.0840 ha         1 64W       0.134000
     17 H151       -22.3800     8.5220    11.9340 h1         1 64W       0.043367
     18 H153       -21.7660     8.0860    13.5280 h1         1 64W       0.043367
     19 H152       -21.4990     7.0120    12.1490 h1         1 64W       0.043367
     20 H071       -27.3690     4.9630    14.1620 ha         1 64W       0.134000
     21 H081       -28.3250     3.0640    15.3510 ha         1 64W       0.136000
     22 H091       -24.3650     1.6690    16.2630 ha         1 64W       0.136000
     23 H011       -26.8580    -1.2820    16.1780 hn         1 64W       0.469000
     24 H012       -27.3320    -0.3440    14.8880 hn         1 64W       0.469000
     25 H111       -25.6120     6.0720    13.4120 hn         1 64W       0.147000
     26 H141       -24.3010     7.4510    12.4310 hn         1 64W       0.314500
@<TRIPOS>BOND
     1     1     4 ar  
     2     1     7 ar  
     3     1    16 1   
     4     2    14 1   
     5     2    17 1   
     6     2    18 1   
     7     2    19 1   
     8     3     6 ar  
     9     3     7 ar  
    10     3    11 1   
    11     4     5 ar  
    12     4    13 1   
    13     5     6 ar  
    14     5    20 1   
    15     6    21 1   
    16     7    22 1   
    17     8    11 1   
    18     8    23 1   
    19     8    24 1   
    20     9    11 2   
    21    10    11 2   
    22    12    13 1   
    23    12    14 1   
    24    12    15 2   
    25    13    25 1   
    26    14    26 1   
@<TRIPOS>SUBSTRUCTURE
     1 64W         1 TEMP              0 ****  ****    0 ROOT
