@<TRIPOS>MOLECULE
64X
   26    27     1     0     0
SMALL
No Charge or Current Charge


@<TRIPOS>ATOM
      1 O           16.6500    20.0190     4.6760 o          1 64X      -0.732000
      2 C           16.9350    18.8900     5.0490 c          1 64X       0.691000
      3 OXT         16.6850    18.4750     6.1740 o          1 64X      -0.732000
      4 CA          17.7900    17.9740     4.0820 c3         1 64X       0.014500
      5 N           19.0770    17.4270     4.6580 n8         1 64X      -0.996200
      6 CB          16.8960    16.8380     3.5130 c3         1 64X       0.002800
      7 CG          17.4740    16.1300     2.3110 cc         1 64X      -0.065400
      8 CD2         17.6110    16.6620     0.9830 ca         1 64X      -0.097800
      9 CE3         17.2690    17.9230     0.4700 ca         1 64X      -0.005000
     10 CZ3         17.5190    18.1660    -0.8980 ca         1 64X      -0.063900
     11 Br1         17.0780    19.8650    -1.6550 br         1 64X      -0.140100
     12 CH2         18.0930    17.1620    -1.7130 ca         1 64X      -0.081000
     13 CZ2         18.4210    15.9040    -1.1640 ca         1 64X      -0.146000
     14 CE2         18.1630    15.6890     0.1970 ca         1 64X      -0.045200
     15 NE1         18.3970    14.5410     0.9310 na         1 64X      -0.232700
     16 CD1         17.9590    14.8260     2.2480 cd         1 64X      -0.182100
     17 H2          18.0740    18.6150     3.2360 h1         1 64X       0.042700
     18 H3          19.6600    18.2100     4.9770 hn         1 64X       0.380500
     19 H4          18.8550    16.9310     5.5300 hn         1 64X       0.380500
     20 H6          15.9270    17.2670     3.2280 hc         1 64X       0.049200
     21 H7          16.6790    16.1130     4.3070 hc         1 64X       0.049200
     22 H8          16.8260    18.6880     1.1020 ha         1 64X       0.154000
     23 H9          18.2820    17.3590    -2.7660 ha         1 64X       0.110000
     24 H10         18.8600    15.1240    -1.7810 ha         1 64X       0.101000
     25 H11         18.7990    13.6720     0.5920 hn         1 64X       0.336000
     26 H12         18.0240    14.0880     3.0430 h4         1 64X       0.208000
@<TRIPOS>BOND
     1     1     2 1   
     2     2     3 1   
     3     2     4 1   
     4     4     5 1   
     5     4     6 1   
     6     4    17 1   
     7     5    18 1   
     8     5    19 1   
     9     6     7 1   
    10     6    20 1   
    11     6    21 1   
    12     7     8 1   
    13     7    16 2   
    14     8     9 ar  
    15     8    14 ar  
    16     9    10 ar  
    17     9    22 1   
    18    10    11 1   
    19    10    12 ar  
    20    12    13 ar  
    21    12    23 1   
    22    13    14 ar  
    23    13    24 1   
    24    14    15 1   
    25    15    16 1   
    26    15    25 1   
    27    16    26 1   
@<TRIPOS>SUBSTRUCTURE
     1 64X         1 TEMP              0 ****  ****    0 ROOT
