@<TRIPOS>MOLECULE
64X
   26    27     1     0     0
SMALL
bcc


@<TRIPOS>ATOM
      1 O           16.1580    19.5980     4.6320 o          1 64X      -0.837300
      2 C           16.9960    18.8080     5.1160 c          1 64X       0.901600
      3 OXT         17.2250    18.6090     6.3250 o          1 64X      -0.837300
      4 CA          17.8030    17.9680     4.0910 c3         1 64X       0.014500
      5 N           19.0120    17.3450     4.6040 n8         1 64X      -0.885800
      6 CB          16.8730    16.8920     3.5010 c3         1 64X       0.002800
      7 CG          17.4380    16.1830     2.3180 cc         1 64X      -0.065400
      8 CD2         17.5880    16.7180     0.9980 ca         1 64X      -0.097800
      9 CE3         17.2690    17.9540     0.4260 ca         1 64X      -0.023000
     10 CZ3         17.5470    18.1370    -0.9130 ca         1 64X      -0.063900
     11 BR1         17.1310    19.8000    -1.7260 br         1 64X      -0.140100
     12 CH2         18.1300    17.1370    -1.7060 ca         1 64X      -0.099000
     13 CZ2         18.4480    15.9120    -1.1540 ca         1 64X      -0.164000
     14 CE2         18.1730    15.7110     0.1960 ca         1 64X      -0.045200
     15 NE1         18.3660    14.6240     0.9910 na         1 64X      -0.182400
     16 CD1         17.9270    14.9090     2.2570 cd         1 64X      -0.132100
     17 H2          18.0940    18.6360     3.2730 h1         1 64X       0.042700
     18 H3          19.6690    18.0740     4.8560 hn         1 64X       0.325300
     19 H4          18.7770    16.9040     5.4870 hn         1 64X       0.325300
     20 H6          15.9280    17.3650     3.2250 hc         1 64X       0.049200
     21 H7          16.6360    16.1650     4.2850 hc         1 64X       0.049200
     22 H8          16.8170    18.7370     1.0230 ha         1 64X       0.172000
     23 H9          18.3350    17.3190    -2.7520 ha         1 64X       0.128000
     24 H10         18.8970    15.1370    -1.7620 ha         1 64X       0.119000
     25 H11         18.7740    13.7500     0.7030 hn         1 64X       0.285700
     26 H12         17.9930    14.1660     3.0370 h4         1 64X       0.158000
@<TRIPOS>BOND
     1     1     2 1   
     2     2     3 1   
     3     2     4 1   
     4     4     5 1   
     5     4     6 1   
     6     4    17 1   
     7     5    18 1   
     8     5    19 1   
     9     6     7 1   
    10     6    20 1   
    11     6    21 1   
    12     7     8 1   
    13     7    16 2   
    14     8     9 ar  
    15     8    14 ar  
    16     9    10 ar  
    17     9    22 1   
    18    10    11 1   
    19    10    12 ar  
    20    12    13 ar  
    21    12    23 1   
    22    13    14 ar  
    23    13    24 1   
    24    14    15 1   
    25    15    16 1   
    26    15    25 1   
    27    16    26 1   
@<TRIPOS>SUBSTRUCTURE
     1 64X         1 TEMP              0 ****  ****    0 ROOT
