@<TRIPOS>MOLECULE
64Z
   29    28     1     0     0
SMALL
No Charge or Current Charge


@<TRIPOS>ATOM
      1 C1           3.1500     0.3000     0.0750 c2         1 64Z      -0.110400
      2 C2           2.3520    -0.6980     0.5030 c2         1 64Z      -0.226200
      3 C3           0.8660    -0.6280     0.8080 c3         1 64Z      -0.035200
      4 C4           0.0000    -0.9000    -0.4410 c3         1 64Z      -0.040200
      5 C5          -1.4920    -0.7500    -0.1820 c2         1 64Z      -0.093400
      6 C6          -2.1840     0.3320    -0.5910 c2         1 64Z      -0.227200
      7 C7          -3.6640     0.5980    -0.4280 c3         1 64Z       0.200800
      8 C8          -2.0980    -1.9420     0.5490 c3         1 64Z      -0.056900
      9 C9           2.6990     1.7220    -0.2220 c3         1 64Z      -0.056900
     10 O           -3.9150     1.0890     0.8890 oh         1 64Z      -0.657000
     11 C            4.6350     0.1050    -0.1680 c3         1 64Z      -0.056900
     12 H1           2.7790    -1.6860     0.6820 ha         1 64Z       0.163000
     13 H2           0.6220    -1.3560     1.5910 hc         1 64Z       0.047200
     14 H3           0.6000     0.3520     1.2220 hc         1 64Z       0.047200
     15 H4           0.3120    -0.2000    -1.2260 hc         1 64Z       0.045700
     16 H5           0.2240    -1.9010    -0.8290 hc         1 64Z       0.045700
     17 H6          -1.6670     1.1370    -1.1130 ha         1 64Z       0.175000
     18 H7          -3.9820     1.3400    -1.1730 h1         1 64Z       0.020200
     19 H8          -4.2370    -0.3190    -0.6160 h1         1 64Z       0.020200
     20 H9          -1.6430    -2.0780     1.5370 hc         1 64Z       0.040367
     21 H10         -3.1760    -1.8370     0.7080 hc         1 64Z       0.040367
     22 H11         -1.9440    -2.8690    -0.0170 hc         1 64Z       0.040367
     23 H12          3.1920     2.4380     0.4460 hc         1 64Z       0.038867
     24 H13          2.9490     2.0040    -1.2520 hc         1 64Z       0.038867
     25 H14          1.6180     1.8610    -0.1090 hc         1 64Z       0.038867
     26 H15         -4.8820     1.2500     0.9490 ho         1 64Z       0.438000
     27 H16          4.9530    -0.9220     0.0510 hc         1 64Z       0.038867
     28 H17          4.8950     0.3130    -1.2130 hc         1 64Z       0.038867
     29 H18          5.2300     0.7740     0.4650 hc         1 64Z       0.038867
@<TRIPOS>BOND
     1     1     2 2   
     2     1     9 1   
     3     1    11 1   
     4     2     3 1   
     5     2    12 1   
     6     3     4 1   
     7     3    13 1   
     8     3    14 1   
     9     4     5 1   
    10     4    15 1   
    11     4    16 1   
    12     5     6 2   
    13     5     8 1   
    14     6     7 1   
    15     6    17 1   
    16     7    10 1   
    17     7    18 1   
    18     7    19 1   
    19     8    20 1   
    20     8    21 1   
    21     8    22 1   
    22     9    23 1   
    23     9    24 1   
    24     9    25 1   
    25    10    26 1   
    26    11    27 1   
    27    11    28 1   
    28    11    29 1   
@<TRIPOS>SUBSTRUCTURE
     1 64Z         1 TEMP              0 ****  ****    0 ROOT
