@<TRIPOS>MOLECULE
64Z
   29    28     1     0     0
SMALL
bcc


@<TRIPOS>ATOM
      1 C1           3.1770     0.3120     0.0980 c2         1 64Z      -0.110400
      2 C2           2.2980    -0.6780     0.2720 c2         1 64Z      -0.176200
      3 C3           0.8570    -0.5720     0.6620 c3         1 64Z      -0.035200
      4 C4          -0.0690    -0.8080    -0.5420 c3         1 64Z      -0.040200
      5 C5          -1.5320    -0.7850    -0.1860 c2         1 64Z      -0.093400
      6 C6          -2.3180     0.1830    -0.6640 c2         1 64Z      -0.177200
      7 C7          -3.7810     0.3750    -0.4260 c3         1 64Z       0.177600
      8 C8          -1.9860    -1.8900     0.7230 c3         1 64Z      -0.056900
      9 C9           2.8730     1.7680     0.2900 c3         1 64Z      -0.056900
     10 O           -3.9640     1.5610     0.3300 oh         1 64Z      -0.594800
     11 C            4.5900     0.0250    -0.3200 c3         1 64Z      -0.056900
     12 H1           2.6440    -1.6920     0.0810 ha         1 64Z       0.113000
     13 H2           0.6480    -1.3170     1.4360 hc         1 64Z       0.047200
     14 H3           0.6250     0.4010     1.0990 hc         1 64Z       0.047200
     15 H4           0.1430    -0.0500    -1.2990 hc         1 64Z       0.045700
     16 H5           0.1780    -1.7780    -0.9880 hc         1 64Z       0.045700
     17 H6          -1.8590     0.9340    -1.3040 ha         1 64Z       0.125000
     18 H7          -4.2870     0.4540    -1.3970 h1         1 64Z       0.020200
     19 H8          -4.2190    -0.4910     0.0820 h1         1 64Z       0.020200
     20 H9          -1.6070    -1.7390     1.7360 hc         1 64Z       0.040367
     21 H10         -3.0680    -1.9780     0.7910 hc         1 64Z       0.040367
     22 H11         -1.5940    -2.8500     0.3830 hc         1 64Z       0.040367
     23 H12          3.5170     2.1970     1.0630 hc         1 64Z       0.038867
     24 H13          3.0820     2.3250    -0.6270 hc         1 64Z       0.038867
     25 H14          1.8400     1.9650     0.5680 hc         1 64Z       0.038867
     26 H15         -4.9020     1.7720     0.3230 ho         1 64Z       0.399000
     27 H16          4.7690    -1.0410    -0.4580 hc         1 64Z       0.038867
     28 H17          4.8330     0.5320    -1.2570 hc         1 64Z       0.038867
     29 H18          5.3020     0.3950     0.4230 hc         1 64Z       0.038867
@<TRIPOS>BOND
     1     1     2 2   
     2     1     9 1   
     3     1    11 1   
     4     2     3 1   
     5     2    12 1   
     6     3     4 1   
     7     3    13 1   
     8     3    14 1   
     9     4     5 1   
    10     4    15 1   
    11     4    16 1   
    12     5     6 2   
    13     5     8 1   
    14     6     7 1   
    15     6    17 1   
    16     7    10 1   
    17     7    18 1   
    18     7    19 1   
    19     8    20 1   
    20     8    21 1   
    21     8    22 1   
    22     9    23 1   
    23     9    24 1   
    24     9    25 1   
    25    10    26 1   
    26    11    27 1   
    27    11    28 1   
    28    11    29 1   
@<TRIPOS>SUBSTRUCTURE
     1 64Z         1 TEMP              0 ****  ****    0 ROOT
