@<TRIPOS>MOLECULE
650
   28    27     1     0     0
SMALL
No Charge or Current Charge


@<TRIPOS>ATOM
      1 C1           2.7640    -0.1010    -0.0750 c2         1 650      -0.112400
      2 C2           1.8520     0.8510    -0.3480 c2         1 650      -0.224200
      3 C3           0.3970     0.6540    -0.7350 c3         1 650      -0.036200
      4 C4          -0.5290     0.5690     0.4970 c3         1 650      -0.037200
      5 C5          -1.9820     0.2800     0.1400 c2         1 650      -0.117400
      6 C6          -2.7020     1.4940    -0.4360 c3         1 650      -0.052900
      7 C7          -2.5340    -0.9330     0.3480 c2         1 650      -0.219200
      8 C8          -3.9450    -1.3940     0.0300 c3         1 650      -0.052900
      9 C9           4.2030     0.2290     0.2750 c3         1 650      -0.055900
     10 C            2.4990    -1.6000    -0.0700 c3         1 650      -0.055900
     11 H1           2.1470     1.9020    -0.3190 ha         1 650       0.164000
     12 H2           0.0760     1.4820    -1.3780 hc         1 650       0.044700
     13 H3           0.2740    -0.2540    -1.3380 hc         1 650       0.044700
     14 H4          -0.1440    -0.2200     1.1550 hc         1 650       0.044700
     15 H5          -0.4540     1.4990     1.0750 hc         1 650       0.044700
     16 H6          -2.5750     2.3690     0.2130 hc         1 650       0.037700
     17 H7          -2.3110     1.7560    -1.4250 hc         1 650       0.037700
     18 H8          -3.7800     1.3430    -0.5440 hc         1 650       0.037700
     19 H9          -1.9210    -1.7280     0.7780 ha         1 650       0.164000
     20 H10         -3.9260    -2.3740    -0.4620 hc         1 650       0.037700
     21 H11         -4.5360    -1.4990     0.9480 hc         1 650       0.037700
     22 H12         -4.4820    -0.7150    -0.6390 hc         1 650       0.037700
     23 H13          4.4620    -0.1400     1.2740 hc         1 650       0.038367
     24 H14          4.8980    -0.2270    -0.4410 hc         1 650       0.038367
     25 H15          4.3870     1.3100     0.2670 hc         1 650       0.038367
     26 H16          3.1000    -2.1070    -0.8340 hc         1 650       0.038367
     27 H17          2.7580    -2.0390     0.9010 hc         1 650       0.038367
     28 H18          1.4500    -1.8490    -0.2610 hc         1 650       0.038367
@<TRIPOS>BOND
     1     1     2 2   
     2     1     9 1   
     3     1    10 1   
     4     2     3 1   
     5     2    11 1   
     6     3     4 1   
     7     3    12 1   
     8     3    13 1   
     9     4     5 1   
    10     4    14 1   
    11     4    15 1   
    12     5     6 1   
    13     5     7 2   
    14     6    16 1   
    15     6    17 1   
    16     6    18 1   
    17     7     8 1   
    18     7    19 1   
    19     8    20 1   
    20     8    21 1   
    21     8    22 1   
    22     9    23 1   
    23     9    24 1   
    24     9    25 1   
    25    10    26 1   
    26    10    27 1   
    27    10    28 1   
@<TRIPOS>SUBSTRUCTURE
     1 650         1 TEMP              0 ****  ****    0 ROOT
