@<TRIPOS>MOLECULE
650
   28    27     1     0     0
SMALL
bcc


@<TRIPOS>ATOM
      1 C1           2.8130    -0.1400    -0.0960 c2         1 650      -0.112400
      2 C2           1.7900     0.7040    -0.2540 c2         1 650      -0.174200
      3 C3           0.3820     0.3820    -0.6480 c3         1 650      -0.036200
      4 C4          -0.5850     0.5070     0.5410 c3         1 650      -0.037200
      5 C5          -2.0280     0.3150     0.1530 c2         1 650      -0.117400
      6 C6          -2.6580     1.4730    -0.5630 c3         1 650      -0.052900
      7 C7          -2.6560    -0.8270     0.4460 c2         1 650      -0.169200
      8 C8          -4.0650    -1.2170     0.1300 c3         1 650      -0.052900
      9 C9           4.1650     0.3580     0.3250 c3         1 650      -0.055900
     10 C            2.7380    -1.6230    -0.3070 c3         1 650      -0.055900
     11 H1           1.9760     1.7570    -0.0490 ha         1 650       0.114000
     12 H2           0.0730     1.0680    -1.4430 hc         1 650       0.044700
     13 H3           0.2990    -0.6240    -1.0640 hc         1 650       0.044700
     14 H4          -0.2980    -0.2270     1.2980 hc         1 650       0.044700
     15 H5          -0.4570     1.4940     0.9980 hc         1 650       0.044700
     16 H6          -2.6860     2.3530     0.0860 hc         1 650       0.037700
     17 H7          -2.0780     1.7600    -1.4430 hc         1 650       0.037700
     18 H8          -3.6740     1.2760    -0.8960 hc         1 650       0.037700
     19 H9          -2.0860    -1.5830     0.9820 ha         1 650       0.114000
     20 H10         -4.0880    -2.1230    -0.4810 hc         1 650       0.037700
     21 H11         -4.6170    -1.4490     1.0440 hc         1 650       0.037700
     22 H12         -4.6180    -0.4460    -0.4030 hc         1 650       0.037700
     23 H13          4.4920    -0.1300     1.2470 hc         1 650       0.038367
     24 H14          4.9200     0.1270    -0.4310 hc         1 650       0.038367
     25 H15          4.1740     1.4350     0.4900 hc         1 650       0.038367
     26 H16          3.4480    -1.9400    -1.0750 hc         1 650       0.038367
     27 H17          3.0190    -2.1510     0.6080 hc         1 650       0.038367
     28 H18          1.7500    -1.9730    -0.6010 hc         1 650       0.038367
@<TRIPOS>BOND
     1     1     2 2   
     2     1     9 1   
     3     1    10 1   
     4     2     3 1   
     5     2    11 1   
     6     3     4 1   
     7     3    12 1   
     8     3    13 1   
     9     4     5 1   
    10     4    14 1   
    11     4    15 1   
    12     5     6 1   
    13     5     7 2   
    14     6    16 1   
    15     6    17 1   
    16     6    18 1   
    17     7     8 1   
    18     7    19 1   
    19     8    20 1   
    20     8    21 1   
    21     8    22 1   
    22     9    23 1   
    23     9    24 1   
    24     9    25 1   
    25    10    26 1   
    26    10    27 1   
    27    10    28 1   
@<TRIPOS>SUBSTRUCTURE
     1 650         1 TEMP              0 ****  ****    0 ROOT
