@<TRIPOS>MOLECULE
651
   42    45     1     0     0
SMALL
bcc


@<TRIPOS>ATOM
      1 OAA         -2.5880     1.8680    -0.9030 oh         1 651      -0.592800
      2 CAB          6.2860    -0.2670     0.1910 ca         1 651      -0.124000
      3 CAC          5.5960     0.6320     0.9950 ca         1 651      -0.129000
      4 CAD          5.5870    -1.0350    -0.7310 ca         1 651      -0.129000
      5 CAE          4.2190     0.7590     0.8780 ca         1 651      -0.117000
      6 CAF          4.2110    -0.9070    -0.8470 ca         1 651      -0.117000
      7 CAG          1.2300    -0.9840    -0.4050 ca         1 651      -0.121500
      8 CAH          1.4120     1.3640    -0.0350 ca         1 651      -0.121500
      9 CAI         -0.1470    -0.8580    -0.5110 ca         1 651      -0.119500
     10 CAJ          0.0370     1.4870    -0.1450 ca         1 651      -0.119500
     11 CAK         -2.7310    -0.9500     1.5200 c6         1 651      -0.104900
     12 CAL         -4.3770     0.7940     0.9480 c6         1 651      -0.104900
     13 CAM         -3.5030    -1.9000     0.5730 c6         1 651       0.146300
     14 CAN         -5.0480    -0.1880    -0.0390 c6         1 651       0.146300
     15 CAO         -3.0460    -0.5010    -1.2900 c6         1 651       0.125800
     16 CAP          3.5050    -0.0090    -0.0440 cp         1 651      -0.036000
     17 CAQ          2.0400     0.1240    -0.1640 cp         1 651      -0.029000
     18 CAR         -0.7770     0.3790    -0.3880 ca         1 651      -0.107300
     19 CAS         -2.8790     0.4740     0.9860 c6         1 651      -0.052700
     20 NAT         -4.0950    -1.1710    -0.5430 n3         1 651      -0.677600
     21 CAU         -2.2890     0.5640    -0.4390 c6         1 651       0.176100
     22 HOAA        -2.2490     1.9580    -1.8010 ho         1 651       0.406000
     23 HAC          6.1300     1.2300     1.7220 ha         1 651       0.131000
     24 HAD          6.1160    -1.7330    -1.3660 ha         1 651       0.131000
     25 HAE          3.6940     1.4490     1.5280 ha         1 651       0.132000
     26 HAF          3.6830    -1.4980    -1.5860 ha         1 651       0.132000
     27 HAG          1.6720    -1.9690    -0.4910 ha         1 651       0.133000
     28 HAH          2.0050     2.2540     0.1360 ha         1 651       0.133000
     29 HAI         -0.7200    -1.7600    -0.6820 ha         1 651       0.137500
     30 HAJ         -0.4030     2.4700    -0.0410 ha         1 651       0.137500
     31 HAK         -3.1370    -0.9910     2.5330 hc         1 651       0.051200
     32 HAKA        -1.6800    -1.2350     1.6010 hc         1 651       0.051200
     33 HAL         -4.5570     1.8290     0.6600 hc         1 651       0.051200
     34 HALA        -4.7790     0.6740     1.9570 hc         1 651       0.051200
     35 HAM         -2.8430    -2.6710     0.1660 h1         1 651       0.053200
     36 HAMA        -4.3020    -2.4200     1.1060 h1         1 651       0.053200
     37 HAN         -5.8740    -0.7220     0.4380 h1         1 651       0.053200
     38 HANA        -5.4660     0.3460    -0.8940 h1         1 651       0.053200
     39 HAO         -2.3800    -1.2630    -1.6990 h1         1 651       0.059700
     40 HAOA        -3.4970     0.0000    -2.1510 h1         1 651       0.059700
     41 HAS         -2.3540     1.1790     1.6370 hc         1 651       0.068700
     42 HAB          7.3590    -0.3680     0.2830 ha         1 651       0.131000
@<TRIPOS>BOND
     1     1    21 1   
     2     1    22 1   
     3     2     3 ar  
     4     2     4 ar  
     5     2    42 1   
     6     3     5 ar  
     7     3    23 1   
     8     4     6 ar  
     9     4    24 1   
    10     5    16 ar  
    11     5    25 1   
    12     6    16 ar  
    13     6    26 1   
    14     7     9 ar  
    15     7    17 ar  
    16     7    27 1   
    17     8    10 ar  
    18     8    17 ar  
    19     8    28 1   
    20     9    18 ar  
    21     9    29 1   
    22    10    18 ar  
    23    10    30 1   
    24    11    13 1   
    25    11    19 1   
    26    11    31 1   
    27    11    32 1   
    28    12    14 1   
    29    12    19 1   
    30    12    33 1   
    31    12    34 1   
    32    13    20 1   
    33    13    35 1   
    34    13    36 1   
    35    14    20 1   
    36    14    37 1   
    37    14    38 1   
    38    15    20 1   
    39    15    21 1   
    40    15    39 1   
    41    15    40 1   
    42    16    17 1   
    43    18    21 1   
    44    19    21 1   
    45    19    41 1   
@<TRIPOS>SUBSTRUCTURE
     1 651         1 TEMP              0 ****  ****    0 ROOT
