@<TRIPOS>MOLECULE
651
   42    45     1     0     0
SMALL
No Charge or Current Charge


@<TRIPOS>ATOM
      1 OAA         -2.5730     1.8760    -1.0880 oh         1 651      -0.655000
      2 CAB          6.3680    -0.3010     0.1780 ca         1 651      -0.106000
      3 CAC          5.6770     0.5720     1.0330 ca         1 651      -0.111000
      4 CAD          5.6620    -1.0370    -0.7870 ca         1 651      -0.111000
      5 CAE          4.2820     0.7080     0.9230 ca         1 651      -0.099000
      6 CAF          4.2670    -0.9010    -0.8960 ca         1 651      -0.099000
      7 CAG          1.2400    -0.9800    -0.5060 ca         1 651      -0.103500
      8 CAH          1.4190     1.3570     0.0810 ca         1 651      -0.103500
      9 CAI         -0.1550    -0.8510    -0.6160 ca         1 651      -0.101500
     10 CAJ          0.0250     1.4910    -0.0280 ca         1 651      -0.101500
     11 CAK         -2.7660    -0.8400     1.5780 c6         1 651      -0.104900
     12 CAL         -4.5000     0.8090     0.8720 c6         1 651      -0.104900
     13 CAM         -3.4270    -1.9120     0.6530 c6         1 651       0.146300
     14 CAN         -5.1550    -0.3100     0.0010 c6         1 651       0.146300
     15 CAO         -3.1190    -0.5030    -1.3340 c6         1 651       0.125800
     16 CAP          3.5470    -0.0250    -0.0440 cp         1 651      -0.036000
     17 CAQ          2.0600     0.1200    -0.1620 cp         1 651      -0.029000
     18 CAR         -0.7900     0.3960    -0.3980 ca         1 651      -0.107300
     19 CAS         -2.9580     0.5790     0.9580 c6         1 651      -0.052700
     20 NAT         -4.1180    -1.2620    -0.5050 n3         1 651      -0.677600
     21 CAU         -2.3350     0.5920    -0.4860 c6         1 651       0.199300
     22 HOAA        -1.9500     1.9410    -1.8430 ho         1 651       0.445000
     23 HAC          6.2210     1.1410     1.7840 ha         1 651       0.113000
     24 HAD          6.1960    -1.7120    -1.4530 ha         1 651       0.113000
     25 HAE          3.7650     1.3800     1.6040 ha         1 651       0.114000
     26 HAF          3.7430    -1.4700    -1.6590 ha         1 651       0.114000
     27 HAG          1.6880    -1.9570    -0.6710 ha         1 651       0.115000
     28 HAH          2.0090     2.2300     0.3490 ha         1 651       0.115000
     29 HAI         -0.7240    -1.7450    -0.8480 ha         1 651       0.119500
     30 HAJ         -0.4200     2.4610     0.1830 ha         1 651       0.119500
     31 HAK         -3.2240    -0.8790     2.5750 hc         1 651       0.051200
     32 HAKA        -1.7020    -1.0680     1.7270 hc         1 651       0.051200
     33 HAL         -4.7270     1.7970     0.4490 hc         1 651       0.051200
     34 HALA        -4.9420     0.8020     1.8780 hc         1 651       0.051200
     35 HAM         -2.6560    -2.6100     0.2950 h1         1 651       0.053200
     36 HAMA        -4.1410    -2.5070     1.2420 h1         1 651       0.053200
     37 HAN         -5.9060    -0.8440     0.6020 h1         1 651       0.053200
     38 HANA        -5.6930     0.1540    -0.8390 h1         1 651       0.053200
     39 HAO         -2.4310    -1.1940    -1.8350 h1         1 651       0.059700
     40 HAOA        -3.6490    -0.0010    -2.1560 h1         1 651       0.059700
     41 HAS         -2.4900     1.3440     1.5920 hc         1 651       0.068700
     42 HAB          7.4470    -0.4070     0.2630 ha         1 651       0.113000
@<TRIPOS>BOND
     1     1    21 1   
     2     1    22 1   
     3     2     3 ar  
     4     2     4 ar  
     5     2    42 1   
     6     3     5 ar  
     7     3    23 1   
     8     4     6 ar  
     9     4    24 1   
    10     5    16 ar  
    11     5    25 1   
    12     6    16 ar  
    13     6    26 1   
    14     7     9 ar  
    15     7    17 ar  
    16     7    27 1   
    17     8    10 ar  
    18     8    17 ar  
    19     8    28 1   
    20     9    18 ar  
    21     9    29 1   
    22    10    18 ar  
    23    10    30 1   
    24    11    13 1   
    25    11    19 1   
    26    11    31 1   
    27    11    32 1   
    28    12    14 1   
    29    12    19 1   
    30    12    33 1   
    31    12    34 1   
    32    13    20 1   
    33    13    35 1   
    34    13    36 1   
    35    14    20 1   
    36    14    37 1   
    37    14    38 1   
    38    15    20 1   
    39    15    21 1   
    40    15    39 1   
    41    15    40 1   
    42    16    17 1   
    43    18    21 1   
    44    19    21 1   
    45    19    41 1   
@<TRIPOS>SUBSTRUCTURE
     1 651         1 TEMP              0 ****  ****    0 ROOT
