@<TRIPOS>MOLECULE
652
   64    67     1     0     0
SMALL
bcc


@<TRIPOS>ATOM
      1 C25          6.2630     3.1450     0.4270 c3         1 652      -0.224300
      2 S1           6.0720     1.8280     1.6050 sy         1 652       1.085300
      3 O2           7.4000     1.4240     2.0630 o          1 652      -0.591800
      4 O3           5.0800     2.2380     2.5980 o          1 652      -0.591800
      5 C24          5.3910     0.4990     0.6430 ca         1 652      -0.264500
      6 C26          4.0140     0.3670     0.5540 ca         1 652      -0.024000
      7 C23          6.2540    -0.3670    -0.0120 ca         1 652      -0.032000
      8 C22          5.7100    -1.3850    -0.7800 ca         1 652      -0.145000
      9 C21          4.3350    -1.5260    -0.8820 ca         1 652      -0.066000
     10 C20          3.4680    -0.6560    -0.2190 cp         1 652      -0.054000
     11 C19          2.0060    -0.8160    -0.3270 cp         1 652      -0.033000
     12 C28          1.4190    -1.1850    -1.5380 ca         1 652      -0.111000
     13 C27          0.0470    -1.3270    -1.6460 ca         1 652      -0.118000
     14 C18          1.1790    -0.6090     0.7760 ca         1 652      -0.111000
     15 C17         -0.1950    -0.7600     0.6770 ca         1 652      -0.118000
     16 C16         -0.7630    -1.1040    -0.5400 ca         1 652      -0.002200
     17 N2          -2.1670    -1.2660    -0.6750 na         1 652      -0.132000
     18 C15         -2.7620    -2.4830    -0.9040 cc         1 652      -0.239600
     19 C11         -4.0930    -2.2310    -1.0470 cd         1 652       0.267600
     20 C12         -5.2250    -3.1890    -1.3020 c3         1 652       0.148500
     21 C13         -5.9530    -2.8020    -2.5850 c3         1 652      -0.098100
     22 C14         -4.7100    -4.6230    -1.4010 c3         1 652      -0.098100
     23 O1          -6.1880    -3.0840    -0.2600 oh         1 652      -0.583800
     24 N1          -4.3140    -0.8880    -0.9150 nd         1 652      -0.656000
     25 C10         -3.1580    -0.3240    -0.6970 cc         1 652       0.420800
     26 C7          -2.9450     1.1630    -0.5180 c3         1 652      -0.009000
     27 C8          -1.8430     1.6020    -1.5100 c3         1 652      -0.081100
     28 C9          -4.2460     1.8900    -0.8890 c3         1 652      -0.081100
     29 C6          -2.6620     1.4620     0.9630 ca         1 652      -0.061300
     30 C4          -3.1070     0.5500     1.9280 ca         1 652      -0.124000
     31 C3          -2.9130     0.7330     3.2860 ca         1 652      -0.130000
     32 C2          -2.2570     1.8660     3.7410 ca         1 652      -0.120000
     33 C1          -1.8410     2.8130     2.8230 ca         1 652      -0.126000
     34 C5          -2.0590     2.6180     1.4630 ca         1 652       0.038400
     35 CL1         -1.5720     3.9440     0.4450 cl         1 652      -0.121400
     36 H1           6.9140     2.8170    -0.3800 h1         1 652       0.103700
     37 H2           5.2880     3.4250     0.0360 h1         1 652       0.103700
     38 H3           6.7130     3.9870     0.9510 h1         1 652       0.103700
     39 H4           3.3640     1.0650     1.0670 ha         1 652       0.159000
     40 H5           7.3270    -0.2600     0.0720 ha         1 652       0.157000
     41 H6           6.3620    -2.0780    -1.2940 ha         1 652       0.142000
     42 H7           3.9310    -2.3410    -1.4700 ha         1 652       0.138000
     43 H8           2.0330    -1.3390    -2.4160 ha         1 652       0.143000
     44 H9          -0.3970    -1.5940    -2.5960 ha         1 652       0.152000
     45 H10          1.6080    -0.3550     1.7370 ha         1 652       0.143000
     46 H11         -0.8150    -0.6220     1.5510 ha         1 652       0.152000
     47 H12         -2.1810    -3.3900    -0.9370 h4         1 652       0.178000
     48 H13         -5.2770    -2.8580    -3.4370 hc         1 652       0.043367
     49 H14         -6.7890    -3.4780    -2.7720 hc         1 652       0.043367
     50 H15         -6.3360    -1.7830    -2.5260 hc         1 652       0.043367
     51 H16         -3.9920    -4.7370    -2.2140 hc         1 652       0.043367
     52 H17         -4.2200    -4.9370    -0.4760 hc         1 652       0.043367
     53 H18         -5.5380    -5.3060    -1.5910 hc         1 652       0.043367
     54 H19         -5.7530    -3.3010     0.5720 ho         1 652       0.399000
     55 H20         -1.9170     1.0040    -2.4200 hc         1 652       0.047367
     56 H21         -1.9680     2.6390    -1.8070 hc         1 652       0.047367
     57 H22         -0.8350     1.4830    -1.1160 hc         1 652       0.047367
     58 H23         -5.0850     1.5560    -0.2810 hc         1 652       0.047367
     59 H24         -4.1150     2.9610    -0.7360 hc         1 652       0.047367
     60 H25         -4.4970     1.7250    -1.9370 hc         1 652       0.047367
     61 H26         -3.6220    -0.3470     1.6100 ha         1 652       0.148000
     62 H27         -3.2710    -0.0130     3.9830 ha         1 652       0.137000
     63 H28         -2.0820     2.0250     4.7960 ha         1 652       0.139000
     64 H29         -1.3540     3.7180     3.1600 ha         1 652       0.148000
@<TRIPOS>BOND
     1     1     2 1   
     2     1    36 1   
     3     1    37 1   
     4     1    38 1   
     5     2     3 2   
     6     2     4 2   
     7     2     5 1   
     8     5     6 ar  
     9     5     7 ar  
    10     6    10 ar  
    11     6    39 1   
    12     7     8 ar  
    13     7    40 1   
    14     8     9 ar  
    15     8    41 1   
    16     9    10 ar  
    17     9    42 1   
    18    10    11 1   
    19    11    12 ar  
    20    11    14 ar  
    21    12    13 ar  
    22    12    43 1   
    23    13    16 ar  
    24    13    44 1   
    25    14    15 ar  
    26    14    45 1   
    27    15    16 ar  
    28    15    46 1   
    29    16    17 1   
    30    17    18 1   
    31    17    25 1   
    32    18    19 2   
    33    18    47 1   
    34    19    20 1   
    35    19    24 1   
    36    20    21 1   
    37    20    22 1   
    38    20    23 1   
    39    21    48 1   
    40    21    49 1   
    41    21    50 1   
    42    22    51 1   
    43    22    52 1   
    44    22    53 1   
    45    23    54 1   
    46    24    25 2   
    47    25    26 1   
    48    26    27 1   
    49    26    28 1   
    50    26    29 1   
    51    27    55 1   
    52    27    56 1   
    53    27    57 1   
    54    28    58 1   
    55    28    59 1   
    56    28    60 1   
    57    29    30 ar  
    58    29    34 ar  
    59    30    31 ar  
    60    30    61 1   
    61    31    32 ar  
    62    31    62 1   
    63    32    33 ar  
    64    32    63 1   
    65    33    34 ar  
    66    33    64 1   
    67    34    35 1   
@<TRIPOS>SUBSTRUCTURE
     1 652         1 TEMP              0 ****  ****    0 ROOT
