@<TRIPOS>MOLECULE
652
   64    67     1     0     0
SMALL
No Charge or Current Charge


@<TRIPOS>ATOM
      1 C25          5.3950     3.0160     2.3420 c3         1 652      -0.335100
      2 S1           5.5800     1.2690     2.6920 sy         1 652       1.054500
      3 O2           7.0160     1.0280     2.8850 o          1 652      -0.521000
      4 O3           4.6040     0.9480     3.7420 o          1 652      -0.521000
      5 C24          5.0560     0.4880     1.1520 ca         1 652      -0.264500
      6 C26          3.6930     0.1940     0.9400 ca         1 652      -0.006000
      7 C23          6.0000     0.1890     0.1490 ca         1 652      -0.014000
      8 C22          5.5790    -0.4030    -1.0520 ca         1 652      -0.127000
      9 C21          4.2200    -0.6950    -1.2600 ca         1 652      -0.048000
     10 C20          3.2520    -0.4040    -0.2670 cp         1 652      -0.054000
     11 C19          1.8030    -0.7010    -0.4880 cp         1 652      -0.033000
     12 C28          1.2030    -0.5240    -1.7590 ca         1 652      -0.093000
     13 C27         -0.1690    -0.7550    -1.9530 ca         1 652      -0.100000
     14 C18          0.9820    -1.1560     0.5740 ca         1 652      -0.093000
     15 C17         -0.3880    -1.3910     0.3800 ca         1 652      -0.100000
     16 C16         -0.9760    -1.1590    -0.8750 ca         1 652      -0.002200
     17 N2          -2.3480    -1.3280    -1.0400 na         1 652      -0.081300
     18 C15         -2.9400    -2.5600    -1.1130 cc         1 652      -0.207000
     19 C11         -4.2830    -2.2780    -1.1090 cd         1 652       0.202300
     20 C12         -5.4430    -3.2660    -1.1900 c3         1 652       0.171700
     21 C13         -5.4080    -4.0460    -2.5230 c3         1 652      -0.098100
     22 C14         -5.4310    -4.2270     0.0190 c3         1 652      -0.098100
     23 O1          -6.6680    -2.5290    -1.1490 oh         1 652      -0.646000
     24 N1          -4.5070    -0.9090    -0.9980 nd         1 652      -0.656000
     25 C10         -3.3090    -0.3330    -0.9260 cc         1 652       0.420800
     26 C7          -3.0660     1.1790    -0.7920 c3         1 652      -0.009000
     27 C8          -2.7920     1.7180    -2.2230 c3         1 652      -0.081100
     28 C9          -4.3630     1.9110    -0.3190 c3         1 652      -0.081100
     29 C6          -1.9720     1.4470     0.2980 ca         1 652      -0.061300
     30 C4          -2.2520     0.9170     1.5860 ca         1 652      -0.106000
     31 C3          -1.3580     1.0510     2.6590 ca         1 652      -0.112000
     32 C2          -0.1450     1.7210     2.4800 ca         1 652      -0.102000
     33 C1           0.1650     2.2570     1.2250 ca         1 652      -0.108000
     34 C5          -0.7210     2.1340     0.1380 ca         1 652       0.130000
     35 Cl1         -0.1360     2.8850    -1.3490 cl         1 652      -0.213000
     36 H1           6.0400     3.2650     1.4930 h1         1 652       0.103700
     37 H2           4.3440     3.2060     2.0990 h1         1 652       0.103700
     38 H3           5.6940     3.5760     3.2340 h1         1 652       0.103700
     39 H4           2.9630     0.4440     1.7070 ha         1 652       0.141000
     40 H5           7.0570     0.4130     0.2930 ha         1 652       0.139000
     41 H6           6.3070    -0.6370    -1.8250 ha         1 652       0.124000
     42 H7           3.9180    -1.1620    -2.1940 ha         1 652       0.120000
     43 H8           1.8010    -0.1780    -2.5980 ha         1 652       0.125000
     44 H9          -0.6050    -0.6060    -2.9380 ha         1 652       0.134000
     45 H10          1.4100    -1.3260     1.5580 ha         1 652       0.125000
     46 H11         -1.0000    -1.7270     1.2150 ha         1 652       0.134000
     47 H12         -2.3960    -3.4950    -1.1650 h4         1 652       0.160000
     48 H13         -4.4920    -4.6450    -2.5980 hc         1 652       0.043367
     49 H14         -6.2660    -4.7240    -2.6040 hc         1 652       0.043367
     50 H15         -5.4330    -3.3570    -3.3770 hc         1 652       0.043367
     51 H16         -4.5160    -4.8330     0.0240 hc         1 652       0.043367
     52 H17         -5.4710    -3.6670     0.9610 hc         1 652       0.043367
     53 H18         -6.2900    -4.9080    -0.0120 hc         1 652       0.043367
     54 H19         -6.3580    -1.5940    -1.0720 ho         1 652       0.438000
     55 H20         -3.6190     1.4540    -2.8940 hc         1 652       0.047367
     56 H21         -2.7120     2.8120    -2.2330 hc         1 652       0.047367
     57 H22         -1.8890     1.2840    -2.6590 hc         1 652       0.047367
     58 H23         -4.7520     1.4980     0.6190 hc         1 652       0.047367
     59 H24         -4.1670     2.9780    -0.1580 hc         1 652       0.047367
     60 H25         -5.1630     1.8280    -1.0640 hc         1 652       0.047367
     61 H26         -3.1740     0.3680     1.7630 ha         1 652       0.130000
     62 H27         -1.6060     0.6260     3.6290 ha         1 652       0.119000
     63 H28          0.5520     1.8240     3.3090 ha         1 652       0.121000
     64 H29          1.1100     2.7770     1.0890 ha         1 652       0.130000
@<TRIPOS>BOND
     1     1     2 1   
     2     1    36 1   
     3     1    37 1   
     4     1    38 1   
     5     2     3 2   
     6     2     4 2   
     7     2     5 1   
     8     5     6 ar  
     9     5     7 ar  
    10     6    10 ar  
    11     6    39 1   
    12     7     8 ar  
    13     7    40 1   
    14     8     9 ar  
    15     8    41 1   
    16     9    10 ar  
    17     9    42 1   
    18    10    11 1   
    19    11    12 ar  
    20    11    14 ar  
    21    12    13 ar  
    22    12    43 1   
    23    13    16 ar  
    24    13    44 1   
    25    14    15 ar  
    26    14    45 1   
    27    15    16 ar  
    28    15    46 1   
    29    16    17 1   
    30    17    18 1   
    31    17    25 1   
    32    18    19 2   
    33    18    47 1   
    34    19    20 1   
    35    19    24 1   
    36    20    21 1   
    37    20    22 1   
    38    20    23 1   
    39    21    48 1   
    40    21    49 1   
    41    21    50 1   
    42    22    51 1   
    43    22    52 1   
    44    22    53 1   
    45    23    54 1   
    46    24    25 2   
    47    25    26 1   
    48    26    27 1   
    49    26    28 1   
    50    26    29 1   
    51    27    55 1   
    52    27    56 1   
    53    27    57 1   
    54    28    58 1   
    55    28    59 1   
    56    28    60 1   
    57    29    30 ar  
    58    29    34 ar  
    59    30    31 ar  
    60    30    61 1   
    61    31    32 ar  
    62    31    62 1   
    63    32    33 ar  
    64    32    63 1   
    65    33    34 ar  
    66    33    64 1   
    67    34    35 1   
@<TRIPOS>SUBSTRUCTURE
     1 652         1 TEMP              0 ****  ****    0 ROOT
