@<TRIPOS>MOLECULE
653
   50    53     1     0     0
SMALL
No Charge or Current Charge


@<TRIPOS>ATOM
      1 C1           5.4940     0.3110     0.0480 ca         1 653      -0.298900
      2 C2           5.1260     1.6780     0.2070 ca         1 653      -0.093000
      3 C3           3.7700     2.0680     0.2330 ca         1 653      -0.086000
      4 C4           2.8000     1.0700     0.0970 ca         1 653       0.013000
      5 C5           3.1370    -0.2660    -0.0590 ca         1 653      -0.056000
      6 C6           4.4780    -0.6730    -0.0870 ca         1 653      -0.020000
      7 C7           6.9280    -0.0870     0.0210 ce         1 653       0.531400
      8 N1           7.3030    -1.2960     0.5370 nv         1 653      -0.584700
      9 N2           7.8530     0.7620    -0.5170 nv         1 653      -0.568800
     10 N3           1.4240     1.1800     0.0880 na         1 653      -0.270900
     11 N4           1.9860    -1.0300    -0.1730 nc         1 653      -0.359600
     12 C8           0.9700    -0.1090    -0.0790 cc         1 653       0.273500
     13 C9          -0.4090    -0.3300    -0.1280 cd         1 653      -0.302200
     14 C10         -0.7840    -1.7080    -0.3090 cd         1 653      -0.020000
     15 C11         -2.1210    -2.0380    -0.3910 cc         1 653      -0.294200
     16 CV          -2.5820    -3.4620    -0.5970 c3         1 653      -0.007200
     17 CW          -3.0610    -4.1140     0.7120 c3         1 653       0.090600
     18 NX          -3.5240    -5.5340     0.4950 nz         1 653      -0.975000
     19 C12         -3.1360    -1.0260    -0.2720 cc         1 653      -0.091000
     20 C13         -2.8580     0.3130    -0.0460 cd         1 653      -0.172400
     21 C14         -1.4270     0.7590    -0.0150 c          1 653       0.591500
     22 O6          -1.1120     1.9450     0.0720 o          1 653      -0.697100
     23 C1B         -3.9790     1.2980     0.0120 ca         1 653      -0.016800
     24 C2B         -3.8950     2.4750     0.7940 ca         1 653      -0.099500
     25 C3B         -4.9630     3.3870     0.8540 ca         1 653      -0.116500
     26 C4B         -6.1410     3.1410     0.1350 ca         1 653      -0.114000
     27 C5B         -6.2500     1.9780    -0.6400 ca         1 653      -0.116500
     28 C6B         -5.1830     1.0640    -0.6970 ca         1 653      -0.099500
     29 HC2          5.8880     2.4460     0.3250 ha         1 653       0.111000
     30 HC3          3.4880     3.1110     0.3580 ha         1 653       0.143000
     31 HC6          4.7170    -1.7260    -0.2230 ha         1 653       0.123000
     32 HH11         8.2850    -1.4550     0.7150 hn         1 653       0.370000
     33 HH12         6.6360    -1.7870     1.1160 hn         1 653       0.370000
     34 HH21         7.5060     1.5370    -1.0660 hn         1 653       0.370000
     35 HH22         8.7690     0.4000    -0.7400 hn         1 653       0.370000
     36 HN3          0.8360     2.0050     0.1660 hn         1 653       0.427000
     37 H1          -0.0400    -2.4980    -0.3940 ha         1 653       0.170000
     38 H31A        -3.3970    -3.4880    -1.3310 hc         1 653       0.047200
     39 H31B        -1.7700    -4.0660    -1.0200 hc         1 653       0.047200
     40 H32A        -2.2390    -4.1070     1.4360 hx         1 653       0.104200
     41 H32B        -3.8850    -3.5230     1.1260 hx         1 653       0.104200
     42 H33A        -4.3120    -5.6070    -0.1680 hn         1 653       0.501667
     43 H33B        -2.7850    -6.1490     0.1210 hn         1 653       0.501667
     44 H33C        -3.8500    -5.9890     1.3630 hn         1 653       0.501667
     45 HC4         -4.1670    -1.3640    -0.3200 ha         1 653       0.153000
     46 H2B         -3.0150     2.6800     1.3960 ha         1 653       0.112000
     47 H3B         -4.8780     4.2820     1.4670 ha         1 653       0.108000
     48 H4B         -6.9680     3.8470     0.1810 ha         1 653       0.110000
     49 H5B         -7.1610     1.7840    -1.2020 ha         1 653       0.108000
     50 H6B         -5.2950     0.1890    -1.3310 ha         1 653       0.112000
@<TRIPOS>BOND
     1     1     2 ar  
     2     1     6 ar  
     3     1     7 1   
     4     2     3 ar  
     5     2    29 1   
     6     3     4 ar  
     7     3    30 1   
     8     4     5 ar  
     9     4    10 2   
    10     5     6 ar  
    11     5    11 2   
    12     6    31 1   
    13     7     8 2   
    14     7     9 1   
    15     8    32 1   
    16     8    33 1   
    17     9    34 1   
    18     9    35 1   
    19    10    12 1   
    20    10    36 1   
    21    11    12 1   
    22    12    13 2   
    23    13    14 1   
    24    13    21 1   
    25    14    15 2   
    26    14    37 1   
    27    15    16 1   
    28    15    19 1   
    29    16    17 1   
    30    16    38 1   
    31    16    39 1   
    32    17    18 1   
    33    17    40 1   
    34    17    41 1   
    35    18    42 1   
    36    18    43 1   
    37    18    44 1   
    38    19    20 2   
    39    19    45 1   
    40    20    21 1   
    41    20    23 1   
    42    21    22 2   
    43    23    24 ar  
    44    23    28 ar  
    45    24    25 ar  
    46    24    46 1   
    47    25    26 ar  
    48    25    47 1   
    49    26    27 ar  
    50    26    48 1   
    51    27    28 ar  
    52    27    49 1   
    53    28    50 1   
@<TRIPOS>SUBSTRUCTURE
     1 653         1 TEMP              0 ****  ****    0 ROOT
