@<TRIPOS>MOLECULE
653
   50    53     1     0     0
SMALL
bcc


@<TRIPOS>ATOM
      1 H1           5.3960     0.3400     0.0290 ca         1 653      -0.215000
      2 H2           5.0620     1.7000     0.1730 ca         1 653      -0.111000
      3 H3           3.7440     2.1130     0.2000 ca         1 653      -0.104000
      4 H4           2.7690     1.1320     0.0690 ca         1 653       0.013000
      5 H5           3.0840    -0.2380    -0.0790 ca         1 653      -0.056000
      6 H6           4.4120    -0.6400    -0.0950 ca         1 653      -0.038000
      7 H7           6.8080    -0.0530     0.0130 c2         1 653       0.354000
      8 H1           7.1660    -1.2000     0.5420 n8         1 653      -0.330000
      9 H2           7.6990     0.7440    -0.5300 n8         1 653      -0.330000
     10 H3           1.4140     1.1730     0.0440 na         1 653      -0.198000
     11 H4           1.9410    -0.9760    -0.1930 n2         1 653      -0.219000
     12 H8           0.9570    -0.1020    -0.1140 cc         1 653       0.160000
     13 H9          -0.4590    -0.3960    -0.1770 cd         1 653      -0.283000
     14 H10         -0.8580    -1.7250    -0.3480 cd         1 653       0.030000
     15 H11         -2.1870    -2.0820    -0.4290 cc         1 653      -0.290000
     16 HV          -2.6140    -3.5170    -0.5730 c3         1 653      -0.090000
     17 HW          -3.0470    -4.0830     0.7700 c3         1 653      -0.118000
     18 HX          -3.4860    -5.5000     0.6370 nz         1 653      -0.065000
     19 H12         -3.1400    -1.0600    -0.3210 cc         1 653      -0.041000
     20 H13         -2.8030     0.2670    -0.1400 cd         1 653      -0.165000
     21 H14         -1.4190     0.6710    -0.0680 c          1 653       0.314000
     22 H6          -1.0880     1.8850     0.0670 o          1 653      -0.458000
     23 H1B         -3.8760     1.2780    -0.0460 ca         1 653      -0.005000
     24 H2B         -3.8780     2.2630     0.9470 ca         1 653      -0.117500
     25 H3B         -4.9250     3.1670     1.0520 ca         1 653      -0.134500
     26 H4B         -5.9920     3.1190     0.1610 ca         1 653      -0.132000
     27 H5B         -6.0000     2.1520    -0.8340 ca         1 653      -0.134500
     28 H6B         -4.9520     1.2460    -0.9360 ca         1 653      -0.117500
     29 HC2          5.8410     2.4390     0.3000 ha         1 653       0.129000
     30 HC3          3.4920     3.1570     0.3260 ha         1 653       0.161000
     31 HC6          4.6630    -1.6850    -0.2310 ha         1 653       0.141000
     32 HH11         8.1160    -1.5380     0.5010 ha         1 653       0.270000
     33 HH12         6.5130    -1.7420     1.0830 ha         1 653       0.270000
     34 HH21         7.4160     1.5510    -1.0600 ha         1 653       0.270000
     35 HH22         8.6870     0.5380    -0.5060 ha         1 653       0.270000
     36 HN3          0.7470     1.9420     0.1170 ha         1 653       0.327000
     37 H1          -0.0910    -2.4890    -0.4170 ha         1 653       0.120000
     38 H31A        -3.4420    -3.6020    -1.2830 ha         1 653       0.086500
     39 H31B        -1.7920    -4.1170    -0.9720 ha         1 653       0.086500
     40 H32A        -2.2300    -4.0720     1.4880 ha         1 653       0.143500
     41 H32B        -3.8870    -3.5320     1.1850 ha         1 653       0.143500
     42 H33A        -4.2800    -5.5950     0.0060 ha         1 653       0.241667
     43 H33B        -2.7400    -6.0940     0.2760 ha         1 653       0.241667
     44 H33C        -3.7700    -5.8930     1.5330 ha         1 653       0.241667
     45 HC4         -4.1920    -1.3260    -0.3680 ha         1 653       0.103000
     46 H2B         -3.0650     2.3110     1.6570 ha         1 653       0.130000
     47 H3B         -4.9100     3.9120     1.8370 ha         1 653       0.126000
     48 H4B         -6.8060     3.8270     0.2440 ha         1 653       0.128000
     49 H5B         -6.8200     2.1040    -1.5390 ha         1 653       0.126000
     50 H6B         -4.9670     0.5080    -1.7290 ha         1 653       0.130000
@<TRIPOS>BOND
     1     1     2 ar  
     2     1     6 ar  
     3     1     7 1   
     4     2     3 ar  
     5     2    29 1   
     6     3     4 ar  
     7     3    30 1   
     8     4     5 ar  
     9     4    10 2   
    10     5     6 ar  
    11     5    11 2   
    12     6    31 1   
    13     7     8 2   
    14     7     9 1   
    15     8    32 1   
    16     8    33 1   
    17     9    34 1   
    18     9    35 1   
    19    10    12 1   
    20    10    36 1   
    21    11    12 1   
    22    12    13 2   
    23    13    14 1   
    24    13    21 1   
    25    14    15 2   
    26    14    37 1   
    27    15    16 1   
    28    15    19 1   
    29    16    17 1   
    30    16    38 1   
    31    16    39 1   
    32    17    18 1   
    33    17    40 1   
    34    17    41 1   
    35    18    42 1   
    36    18    43 1   
    37    18    44 1   
    38    19    20 2   
    39    19    45 1   
    40    20    21 1   
    41    20    23 1   
    42    21    22 2   
    43    23    24 ar  
    44    23    28 ar  
    45    24    25 ar  
    46    24    46 1   
    47    25    26 ar  
    48    25    47 1   
    49    26    27 ar  
    50    26    48 1   
    51    27    28 ar  
    52    27    49 1   
    53    28    50 1   
@<TRIPOS>SUBSTRUCTURE
     1 653         1 TEMP              0 ****  ****    0 ROOT
