@<TRIPOS>MOLECULE
654
   32    34     1     0     0
SMALL
No Charge or Current Charge


@<TRIPOS>ATOM
      1 S1T          1.5420    -0.1910    -2.9970 ss         1 654       0.171000
      2 C2T         -0.1940    -0.4320    -2.8320 cc         1 654      -0.217500
      3 C3T         -0.7260    -1.0640    -3.9290 cd         1 654      -0.114000
      4 C4T          0.2490    -1.3660    -4.9190 cd         1 654      -0.131000
      5 C5T          1.5190    -0.9660    -4.5800 cc         1 654      -0.242000
      6 C1I         -0.9670    -0.0220    -1.6940 cc         1 654       0.314500
      7 N2I         -2.3110    -0.2090    -1.5640 nc         1 654      -0.660000
      8 C3I         -0.4180     0.6060    -0.6130 cd         1 654      -0.210000
      9 N4I         -1.4870     0.8170     0.2410 na         1 654      -0.162500
     10 C5I         -2.6210     0.3060    -0.3800 cd         1 654       0.388400
     11 C1          -1.4350     1.4610     1.5630 c3         1 654       0.123900
     12 C2          -0.4870     0.7770     2.5470 ca         1 654      -0.127300
     13 C3           0.3720     1.5520     3.3500 ca         1 654      -0.085500
     14 C4           1.2460     0.9320     4.2610 ca         1 654      -0.111500
     15 C5          -0.4660    -0.6270     2.6740 ca         1 654      -0.085500
     16 C6           0.4090    -1.2450     3.5850 ca         1 654      -0.111500
     17 C7           1.2710    -0.4690     4.3810 ca         1 654      -0.059300
     18 C8           2.2150    -1.1390     5.3680 c3         1 654      -0.050800
     19 H3TC        -1.7790    -1.3110    -4.0340 ha         1 654       0.149000
     20 H4TC         0.0120    -1.8650    -5.8540 ha         1 654       0.132000
     21 H5TC         2.4400    -1.0670    -5.1390 h4         1 654       0.147000
     22 H3IC         0.6010     0.8990    -0.3930 h4         1 654       0.163000
     23 H5IC        -3.6020     0.3440     0.0800 h5         1 654       0.053100
     24 HC11        -2.4450     1.4700     1.9920 h1         1 654       0.065200
     25 HC12        -1.1300     2.5050     1.4200 h1         1 654       0.065200
     26 HC3          0.3660     2.6370     3.2710 ha         1 654       0.115000
     27 HC4          1.9040     1.5440     4.8740 ha         1 654       0.115500
     28 HC5         -1.1280    -1.2430     2.0700 ha         1 654       0.115000
     29 HC6          0.4130    -2.3290     3.6720 ha         1 654       0.115500
     30 HC81         1.7360    -1.2560     6.3470 hc         1 654       0.045367
     31 HC82         2.5170    -2.1340     5.0210 hc         1 654       0.045367
     32 HC83         3.1290    -0.5500     5.5100 hc         1 654       0.045367
@<TRIPOS>BOND
     1     1     2 1   
     2     1     5 1   
     3     2     3 2   
     4     2     6 1   
     5     3     4 1   
     6     3    19 1   
     7     4     5 2   
     8     4    20 1   
     9     5    21 1   
    10     6     7 1   
    11     6     8 2   
    12     7    10 2   
    13     8     9 1   
    14     8    22 1   
    15     9    10 1   
    16     9    11 1   
    17    10    23 1   
    18    11    12 1   
    19    11    24 1   
    20    11    25 1   
    21    12    13 ar  
    22    12    15 ar  
    23    13    14 ar  
    24    13    26 1   
    25    14    17 ar  
    26    14    27 1   
    27    15    16 ar  
    28    15    28 1   
    29    16    17 ar  
    30    16    29 1   
    31    17    18 1   
    32    18    30 1   
    33    18    31 1   
    34    18    32 1   
@<TRIPOS>SUBSTRUCTURE
     1 654         1 TEMP              0 ****  ****    0 ROOT
