@<TRIPOS>MOLECULE
654
   32    34     1     0     0
SMALL
abcg2


@<TRIPOS>ATOM
      1 S1T          1.4890     0.0910    -3.1120 ss         1 654       0.171000
      2 C2T         -0.1510    -0.3810    -2.8510 cc         1 654      -0.217500
      3 C3T         -0.6170    -1.1110    -3.9100 cd         1 654      -0.114000
      4 C4T          0.3540    -1.2880    -4.9310 cd         1 654      -0.131000
      5 C5T          1.5420    -0.6930    -4.6380 cc         1 654      -0.242000
      6 C1I         -0.8660    -0.0150    -1.6450 cc         1 654       0.314500
      7 N2I         -2.1670    -0.3910    -1.4500 nc         1 654      -0.660000
      8 C3I         -0.4250     0.7110    -0.5670 cd         1 654      -0.210000
      9 N4I         -1.4840     0.7740     0.2900 na         1 654      -0.162500
     10 C5I         -2.5000     0.0960    -0.2840 cd         1 654       0.388400
     11 C1          -1.4960     1.4150     1.5920 c3         1 654       0.123900
     12 C2          -0.5500     0.7510     2.5570 ca         1 654      -0.127300
     13 C3           0.5450     1.4400     3.0640 ca         1 654      -0.085500
     14 C4           1.4210     0.8250     3.9480 ca         1 654      -0.111500
     15 C5          -0.7480    -0.5690     2.9500 ca         1 654      -0.085500
     16 C6           0.1300    -1.1810     3.8300 ca         1 654      -0.111500
     17 C7           1.2290    -0.4950     4.3470 ca         1 654      -0.059300
     18 C8           2.1630    -1.1510     5.3210 c3         1 654      -0.050800
     19 H3TC        -1.6210    -1.5080    -3.9520 ha         1 654       0.149000
     20 H4TC         0.1740    -1.8380    -5.8440 ha         1 654       0.132000
     21 H5TC         2.4440    -0.6720    -5.2290 h4         1 654       0.147000
     22 H3IC         0.5230     1.1710    -0.3420 h4         1 654       0.163000
     23 H5IC        -3.4630    -0.0050     0.1930 h5         1 654       0.053100
     24 HC11        -2.5220     1.3750     1.9580 h1         1 654       0.065200
     25 HC12        -1.2380     2.4670     1.4690 h1         1 654       0.065200
     26 HC3          0.7200     2.4660     2.7650 ha         1 654       0.115000
     27 HC4          2.2690     1.3820     4.3300 ha         1 654       0.115500
     28 HC5         -1.5930    -1.1290     2.5650 ha         1 654       0.115000
     29 HC6         -0.0420    -2.2100     4.1230 ha         1 654       0.115500
     30 HC81         1.9210    -0.8670     6.3470 hc         1 654       0.045367
     31 HC82         2.1060    -2.2370     5.2620 hc         1 654       0.045367
     32 HC83         3.1980    -0.8580     5.1420 hc         1 654       0.045367
@<TRIPOS>BOND
     1     1     2 1   
     2     1     5 1   
     3     2     3 2   
     4     2     6 1   
     5     3     4 1   
     6     3    19 1   
     7     4     5 2   
     8     4    20 1   
     9     5    21 1   
    10     6     7 1   
    11     6     8 2   
    12     7    10 2   
    13     8     9 1   
    14     8    22 1   
    15     9    10 1   
    16     9    11 1   
    17    10    23 1   
    18    11    12 1   
    19    11    24 1   
    20    11    25 1   
    21    12    13 ar  
    22    12    15 ar  
    23    13    14 ar  
    24    13    26 1   
    25    14    17 ar  
    26    14    27 1   
    27    15    16 ar  
    28    15    28 1   
    29    16    17 ar  
    30    16    29 1   
    31    17    18 1   
    32    18    30 1   
    33    18    31 1   
    34    18    32 1   
@<TRIPOS>SUBSTRUCTURE
     1 654         1 TEMP              0 ****  ****    0 ROOT
