@<TRIPOS>MOLECULE
655
   45    48     1     0     0
SMALL
bcc


@<TRIPOS>ATOM
      1 C1           5.0070     0.4640    -0.1780 ca         1 655      -0.298900
      2 C2           5.1650    -0.8850    -0.5430 ca         1 655      -0.125000
      3 C3           4.0870    -1.7500    -0.5660 ca         1 655      -0.127000
      4 C4           2.8480    -1.2240    -0.2280 ca         1 655      -0.003000
      5 C5           2.6650     0.1290     0.1240 ca         1 655      -0.029000
      6 C6           3.7580     0.9830     0.1600 ca         1 655      -0.063000
      7 C7           6.1840     1.3360    -0.1340 ce         1 655       0.531400
      8 N1           6.2700     2.2570     0.7970 nv         1 655      -0.488600
      9 N2           7.1390     1.1850    -1.0230 nv         1 655      -0.472700
     10 N3           1.6050    -1.7630    -0.1460 na         1 655      -0.253600
     11 N4           1.3490     0.3780     0.3930 nc         1 655      -0.307600
     12 C8           0.7250    -0.7700     0.2290 cc         1 655       0.314500
     13 C9          -0.6790    -1.0580     0.4240 cd         1 655      -0.344200
     14 C10         -1.0660    -2.3800     0.7360 cd         1 655      -0.075000
     15 C11         -2.3800    -2.7140     0.9280 cc         1 655      -0.223000
     16 C12         -3.3710    -1.7180     0.8050 cc         1 655      -0.184000
     17 C13         -3.0300    -0.4240     0.5020 cd         1 655      -0.008100
     18 O5          -3.9060     0.6020     0.3830 os         1 655      -0.297900
     19 C14         -1.6490    -0.0090     0.2880 c          1 655       0.596500
     20 O6          -1.3860     1.1780    -0.0050 o          1 655      -0.625100
     21 C1B         -5.9670     1.7280     0.6490 c5         1 655      -0.091400
     22 C2B         -5.2840     0.3650     0.6220 c5         1 655       0.142100
     23 C3B         -5.9590    -0.3780    -0.5520 c5         1 655      -0.091400
     24 C4B         -6.7320     0.6900    -1.3560 c5         1 655      -0.076400
     25 C5B         -6.2370     2.0350    -0.8200 c5         1 655      -0.076400
     26 HC2          6.1480    -1.2720    -0.7760 ha         1 655       0.116000
     27 HC3          4.2180    -2.7920    -0.8270 ha         1 655       0.144000
     28 HC6          3.6250     2.0280     0.4140 ha         1 655       0.146000
     29 HH11         5.6190     2.2750     1.5650 hn         1 655       0.315450
     30 HH12         7.0330     2.9160     0.8320 hn         1 655       0.315450
     31 HH21         7.9950     1.7160    -0.9860 hn         1 655       0.315450
     32 HH22         7.0060     0.5890    -1.8230 hn         1 655       0.315450
     33 HN3          1.3570    -2.7060    -0.4000 hn         1 655       0.312700
     34 H6          -0.3120    -3.1490     0.8650 ha         1 655       0.082000
     35 H7          -2.6640    -3.7260     1.1820 ha         1 655       0.109000
     36 HC4         -4.4050    -2.0010     0.9570 ha         1 655       0.110000
     37 H1A         -6.9150     1.6310     1.1850 hc         1 655       0.048700
     38 H1B         -5.3740     2.4810     1.1710 hc         1 655       0.048700
     39 H2A         -5.4040    -0.1670     1.5730 h1         1 655       0.041700
     40 H3A         -5.2120    -0.8820    -1.1670 hc         1 655       0.048700
     41 H3B         -6.6270    -1.1570    -0.1810 hc         1 655       0.048700
     42 H4A         -7.8040     0.5960    -1.1690 hc         1 655       0.040450
     43 H4B         -6.5870     0.5850    -2.4320 hc         1 655       0.040450
     44 H5A         -6.9600     2.8380    -0.9620 hc         1 655       0.040450
     45 H5B         -5.3130     2.3360    -1.3200 hc         1 655       0.040450
@<TRIPOS>BOND
     1     1     2 ar  
     2     1     6 ar  
     3     1     7 1   
     4     2     3 ar  
     5     2    26 1   
     6     3     4 ar  
     7     3    27 1   
     8     4     5 ar  
     9     4    10 2   
    10     5     6 ar  
    11     5    11 2   
    12     6    28 1   
    13     7     8 2   
    14     7     9 1   
    15     8    29 1   
    16     8    30 1   
    17     9    31 1   
    18     9    32 1   
    19    10    12 1   
    20    10    33 1   
    21    11    12 1   
    22    12    13 2   
    23    13    14 1   
    24    13    19 1   
    25    14    15 2   
    26    14    34 1   
    27    15    16 1   
    28    15    35 1   
    29    16    17 2   
    30    16    36 1   
    31    17    18 1   
    32    17    19 1   
    33    18    22 1   
    34    19    20 2   
    35    21    22 1   
    36    21    25 1   
    37    21    37 1   
    38    21    38 1   
    39    22    23 1   
    40    22    39 1   
    41    23    24 1   
    42    23    40 1   
    43    23    41 1   
    44    24    25 1   
    45    24    42 1   
    46    24    43 1   
    47    25    44 1   
    48    25    45 1   
@<TRIPOS>SUBSTRUCTURE
     1 655         1 TEMP              0 ****  ****    0 ROOT
