@<TRIPOS>MOLECULE
655
   45    48     1     0     0
SMALL
No Charge or Current Charge


@<TRIPOS>ATOM
      1 C1           5.1280     0.4430    -0.1540 ca         1 655      -0.298900
      2 C2           5.2740    -0.9750    -0.1360 ca         1 655      -0.107000
      3 C3           4.1510    -1.8200    -0.0210 ca         1 655      -0.109000
      4 C4           2.8900    -1.2240     0.0720 ca         1 655      -0.003000
      5 C5           2.7260     0.1500     0.0560 ca         1 655      -0.029000
      6 C6           3.8280     1.0080    -0.0560 ca         1 655      -0.045000
      7 C7           6.3220     1.3240    -0.2760 ce         1 655       0.531400
      8 N1           6.3220     2.5520     0.3250 nv         1 655      -0.589200
      9 N2           7.4060     0.8980    -0.9890 nv         1 655      -0.573300
     10 N3           1.6500    -1.8210     0.1890 na         1 655      -0.303900
     11 N4           1.3810     0.4610     0.1600 nc         1 655      -0.307600
     12 C8           0.7570    -0.7600     0.2390 cc         1 655       0.314500
     13 C9          -0.6120    -1.0350     0.3580 cd         1 655      -0.344200
     14 C10         -1.0310    -2.4250     0.4250 cd         1 655      -0.125000
     15 C11         -2.3750    -2.7070     0.5420 cc         1 655      -0.273000
     16 C12         -3.3870    -1.6940     0.6020 cc         1 655      -0.234000
     17 C13         -3.0440    -0.3470     0.5430 cd         1 655      -0.008100
     18 O5          -3.9960     0.6730     0.5920 os         1 655      -0.321100
     19 C14         -1.6090     0.0800     0.4150 c          1 655       0.596500
     20 O6          -1.3020     1.2700     0.3630 o          1 655      -0.625100
     21 C1B         -6.2210     1.5760     0.8460 c5         1 655      -0.091400
     22 C2B         -5.3970     0.2730     0.6030 c5         1 655       0.165300
     23 C3B         -5.8070    -0.1920    -0.8430 c5         1 655      -0.091400
     24 C4B         -6.9560     0.7690    -1.2540 c5         1 655      -0.076400
     25 C5B         -6.5020     2.0870    -0.5880 c5         1 655      -0.076400
     26 HC2          6.2610    -1.4290    -0.1970 ha         1 655       0.098000
     27 HC3          4.2630    -2.9010    -0.0050 ha         1 655       0.126000
     28 HC6          3.6700     2.0850    -0.0800 ha         1 655       0.128000
     29 HH11         5.6050     2.7300     1.0150 hn         1 655       0.365750
     30 HH12         7.2010     3.0400     0.4250 hn         1 655       0.365750
     31 HH21         8.1030     1.5780    -1.2590 hn         1 655       0.365750
     32 HH22         7.2890     0.0830    -1.5750 hn         1 655       0.365750
     33 HN3          1.4370    -2.8060     0.2290 hn         1 655       0.363000
     34 H6          -0.3450    -3.2650     0.3870 ha         1 655       0.132000
     35 H7          -2.6960    -3.7460     0.5930 ha         1 655       0.159000
     36 HC4         -4.4070    -2.0490     0.6970 ha         1 655       0.160000
     37 H1A         -7.1550     1.3510     1.3750 hc         1 655       0.048700
     38 H1B         -5.6830     2.3120     1.4550 hc         1 655       0.048700
     39 H2A         -5.5910    -0.4570     1.4000 h1         1 655       0.041700
     40 H3A         -4.9690    -0.1120    -1.5460 hc         1 655       0.048700
     41 H3B         -6.1360    -1.2360    -0.8600 hc         1 655       0.048700
     42 H4A         -7.9250     0.4320    -0.8640 hc         1 655       0.040450
     43 H4B         -7.0550     0.8610    -2.3410 hc         1 655       0.040450
     44 H5A         -7.2790     2.8600    -0.6130 hc         1 655       0.040450
     45 H5B         -5.6040     2.5010    -1.0630 hc         1 655       0.040450
@<TRIPOS>BOND
     1     1     2 ar  
     2     1     6 ar  
     3     1     7 1   
     4     2     3 ar  
     5     2    26 1   
     6     3     4 ar  
     7     3    27 1   
     8     4     5 ar  
     9     4    10 2   
    10     5     6 ar  
    11     5    11 2   
    12     6    28 1   
    13     7     8 2   
    14     7     9 1   
    15     8    29 1   
    16     8    30 1   
    17     9    31 1   
    18     9    32 1   
    19    10    12 1   
    20    10    33 1   
    21    11    12 1   
    22    12    13 2   
    23    13    14 1   
    24    13    19 1   
    25    14    15 2   
    26    14    34 1   
    27    15    16 1   
    28    15    35 1   
    29    16    17 2   
    30    16    36 1   
    31    17    18 1   
    32    17    19 1   
    33    18    22 1   
    34    19    20 2   
    35    21    22 1   
    36    21    25 1   
    37    21    37 1   
    38    21    38 1   
    39    22    23 1   
    40    22    39 1   
    41    23    24 1   
    42    23    40 1   
    43    23    41 1   
    44    24    25 1   
    45    24    42 1   
    46    24    43 1   
    47    25    44 1   
    48    25    45 1   
@<TRIPOS>SUBSTRUCTURE
     1 655         1 TEMP              0 ****  ****    0 ROOT
