@<TRIPOS>MOLECULE
656
   44    46     1     0     0
SMALL
No Charge or Current Charge


@<TRIPOS>ATOM
      1 C1           4.9810    -0.4630     0.0030 ca         1 656      -0.298900
      2 C2           5.1520     0.9470     0.1220 ca         1 656      -0.106000
      3 C3           4.0390     1.8120     0.1730 ca         1 656      -0.109000
      4 C4           2.7640     1.2450     0.1000 ca         1 656      -0.002000
      5 C5           2.5760    -0.1210    -0.0170 ca         1 656      -0.030000
      6 C6           3.6670    -0.9990    -0.0670 ca         1 656      -0.044000
      7 C7           6.1640    -1.3660    -0.0500 ce         1 656       0.531400
      8 N1           7.3240    -0.9250    -0.6210 nv         1 656      -0.591200
      9 N2           6.0780    -2.6270     0.4710 nv         1 656      -0.575300
     10 N3           1.5300     1.8650     0.1260 na         1 656      -0.303900
     11 N4           1.2220    -0.4030    -0.0700 nc         1 656      -0.306600
     12 C8           0.6170     0.8260     0.0200 cc         1 656       0.312500
     13 C9          -0.7510     1.1290     0.0150 cd         1 656      -0.343200
     14 C11         -1.1500     2.5240     0.1230 cd         1 656      -0.124000
     15 C12         -2.4940     2.8340     0.1200 cc         1 656      -0.272000
     16 C13         -3.5240     1.8430     0.0150 cc         1 656      -0.232000
     17 C14         -3.1950     0.5010    -0.0900 cd         1 656      -0.008100
     18 C15         -1.7690     0.0370    -0.0980 c          1 656       0.597500
     19 O6          -1.4860    -1.1560    -0.1920 o          1 656      -0.624100
     20 O5          -4.1920    -0.4540    -0.1910 os         1 656      -0.323100
     21 C10         -5.5930    -0.1160    -0.1880 c3         1 656       0.163600
     22 C20         -6.4160    -1.4240    -0.3100 c3         1 656      -0.061700
     23 C30         -6.1950    -2.3750     0.8920 c3         1 656      -0.085600
     24 C40         -7.9180    -1.1180    -0.5060 c3         1 656      -0.085600
     25 HC2          6.1490     1.3780     0.1900 ha         1 656       0.098000
     26 HC3          4.1700     2.8880     0.2670 ha         1 656       0.126000
     27 HC6          3.4910    -2.0680    -0.1730 ha         1 656       0.127000
     28 HH11         7.2770    -0.0750    -1.1650 hn         1 656       0.366000
     29 HH12         8.0320    -1.6040    -0.8650 hn         1 656       0.366000
     30 HH21         6.9350    -3.1390     0.6260 hn         1 656       0.366000
     31 HH22         5.2910    -2.8340     1.0710 hn         1 656       0.366000
     32 HN3          1.3340     2.8520     0.2040 hn         1 656       0.363000
     33 H5          -0.4470     3.3470     0.2070 ha         1 656       0.131000
     34 H6          -2.7990     3.8750     0.2000 ha         1 656       0.159000
     35 HC4         -4.5510     2.1940     0.0220 ha         1 656       0.160000
     36 H10A        -5.8280     0.5380    -1.0380 h1         1 656       0.020700
     37 H10B        -5.8690     0.4020     0.7400 h1         1 656       0.020700
     38 H20         -6.0720    -1.9440    -1.2130 hc         1 656       0.058700
     39 H30A        -6.5020    -1.8960     1.8290 hc         1 656       0.032033
     40 H30B        -6.7780    -3.2950     0.7690 hc         1 656       0.032033
     41 H30C        -5.1390    -2.6590     0.9810 hc         1 656       0.032033
     42 H40A        -8.3260    -0.5920     0.3660 hc         1 656       0.032033
     43 H40B        -8.0730    -0.4890    -1.3900 hc         1 656       0.032033
     44 H40C        -8.4880    -2.0450    -0.6460 hc         1 656       0.032033
@<TRIPOS>BOND
     1     1     2 ar  
     2     1     6 ar  
     3     1     7 1   
     4     2     3 ar  
     5     2    25 1   
     6     3     4 ar  
     7     3    26 1   
     8     4     5 ar  
     9     4    10 2   
    10     5     6 ar  
    11     5    11 2   
    12     6    27 1   
    13     7     8 2   
    14     7     9 1   
    15     8    28 1   
    16     8    29 1   
    17     9    30 1   
    18     9    31 1   
    19    10    12 1   
    20    10    32 1   
    21    11    12 1   
    22    12    13 2   
    23    13    14 1   
    24    13    18 1   
    25    14    15 2   
    26    14    33 1   
    27    15    16 1   
    28    15    34 1   
    29    16    17 2   
    30    16    35 1   
    31    17    18 1   
    32    17    20 1   
    33    18    19 2   
    34    20    21 1   
    35    21    22 1   
    36    21    36 1   
    37    21    37 1   
    38    22    23 1   
    39    22    24 1   
    40    22    38 1   
    41    23    39 1   
    42    23    40 1   
    43    23    41 1   
    44    24    42 1   
    45    24    43 1   
    46    24    44 1   
@<TRIPOS>SUBSTRUCTURE
     1 656         1 TEMP              0 ****  ****    0 ROOT
