@<TRIPOS>MOLECULE
656
   44    46     1     0     0
SMALL
bcc


@<TRIPOS>ATOM
      1 C1           4.8520    -0.4710     0.0430 ca         1 656      -0.298900
      2 C2           5.0340     0.8200     0.5690 ca         1 656      -0.124000
      3 C3           3.9640     1.6740     0.7570 ca         1 656      -0.127000
      4 C4           2.7090     1.2020     0.3950 ca         1 656      -0.002000
      5 C5           2.5030    -0.0910    -0.1280 ca         1 656      -0.030000
      6 C6           3.5850    -0.9410    -0.3050 ca         1 656      -0.062000
      7 C7           6.0160    -1.3400    -0.1420 ce         1 656       0.531400
      8 N1           7.1700    -0.8150    -0.4870 nv         1 656      -0.490600
      9 N2           5.8950    -2.6350     0.0370 nv         1 656      -0.474700
     10 N3           1.4700     1.7540     0.4240 na         1 656      -0.253600
     11 N4           1.1790    -0.2900    -0.4000 nc         1 656      -0.306600
     12 C8           0.5710     0.8280    -0.0610 cc         1 656       0.312500
     13 C9          -0.8360     1.1460    -0.1730 cd         1 656      -0.343200
     14 C11         -1.2240     2.5020    -0.2540 cd         1 656      -0.074000
     15 C12         -2.5400     2.8670    -0.3490 cc         1 656      -0.222000
     16 C13         -3.5360     1.8670    -0.3560 cc         1 656      -0.182000
     17 C14         -3.1930     0.5420    -0.2750 cd         1 656      -0.008100
     18 C15         -1.8100     0.0910    -0.1830 c          1 656       0.597500
     19 O6          -1.5510    -1.1290    -0.1020 o          1 656      -0.624100
     20 O5          -4.0790    -0.4820    -0.2660 os         1 656      -0.299900
     21 C10         -5.4550    -0.1810    -0.3020 c3         1 656       0.140400
     22 C20         -6.2520    -1.4690    -0.1720 c3         1 656      -0.061700
     23 C30         -5.9540    -2.1930     1.1370 c3         1 656      -0.085600
     24 C40         -7.7380    -1.1490    -0.2950 c3         1 656      -0.085600
     25 HC2          6.0220     1.1510     0.8620 ha         1 656       0.116000
     26 HC3          4.1080     2.6620     1.1730 ha         1 656       0.144000
     27 HC6          3.4390    -1.9250    -0.7340 ha         1 656       0.145000
     28 HH11         7.2350     0.1520    -0.7600 hn         1 656       0.315700
     29 HH12         8.0110    -1.3670    -0.5600 hn         1 656       0.315700
     30 HH21         6.6490    -3.2770    -0.1580 hn         1 656       0.315700
     31 HH22         5.0570    -3.0230     0.4380 hn         1 656       0.315700
     32 HN3          1.2390     2.6560     0.8070 hn         1 656       0.312700
     33 H5          -0.4700     3.2800    -0.2810 ha         1 656       0.081000
     34 H6          -2.8210     3.9080    -0.4310 ha         1 656       0.109000
     35 HC4         -4.5730     2.1710    -0.4330 ha         1 656       0.110000
     36 H10A        -5.7150     0.3250    -1.2420 h1         1 656       0.020700
     37 H10B        -5.7240     0.5000     0.5180 h1         1 656       0.020700
     38 H20         -5.9770    -2.1260    -1.0050 hc         1 656       0.058700
     39 H30A        -6.2030    -1.5650     1.9960 hc         1 656       0.032033
     40 H30B        -6.5450    -3.1070     1.2150 hc         1 656       0.032033
     41 H30C        -4.9030    -2.4710     1.2190 hc         1 656       0.032033
     42 H40A        -8.0640    -0.4730     0.4990 hc         1 656       0.032033
     43 H40B        -7.9700    -0.6760    -1.2510 hc         1 656       0.032033
     44 H40C        -8.3380    -2.0560    -0.2220 hc         1 656       0.032033
@<TRIPOS>BOND
     1     1     2 ar  
     2     1     6 ar  
     3     1     7 1   
     4     2     3 ar  
     5     2    25 1   
     6     3     4 ar  
     7     3    26 1   
     8     4     5 ar  
     9     4    10 2   
    10     5     6 ar  
    11     5    11 2   
    12     6    27 1   
    13     7     8 2   
    14     7     9 1   
    15     8    28 1   
    16     8    29 1   
    17     9    30 1   
    18     9    31 1   
    19    10    12 1   
    20    10    32 1   
    21    11    12 1   
    22    12    13 2   
    23    13    14 1   
    24    13    18 1   
    25    14    15 2   
    26    14    33 1   
    27    15    16 1   
    28    15    34 1   
    29    16    17 2   
    30    16    35 1   
    31    17    18 1   
    32    17    20 1   
    33    18    19 2   
    34    20    21 1   
    35    21    22 1   
    36    21    36 1   
    37    21    37 1   
    38    22    23 1   
    39    22    24 1   
    40    22    38 1   
    41    23    39 1   
    42    23    40 1   
    43    23    41 1   
    44    24    42 1   
    45    24    43 1   
    46    24    44 1   
@<TRIPOS>SUBSTRUCTURE
     1 656         1 TEMP              0 ****  ****    0 ROOT
