@<TRIPOS>MOLECULE
657
   20    21     1     0     0
SMALL
bcc


@<TRIPOS>ATOM
      1 C4           1.2810    -0.3900     0.0780 ca         1 657      -0.068100
      2 N2           4.9470     0.3020    -0.3020 nv         1 657      -0.907800
      3 C7          -3.1010    -0.4990    -0.4230 c3         1 657       0.852700
      4 C6          -1.0090     0.0030     0.4890 ca         1 657       0.074100
      5 C8           3.6170     0.2850    -0.1460 cc         1 657       0.654100
      6 C1          -0.7550     1.3530     0.7070 ca         1 657      -0.107000
      7 C2           0.5370     1.8390     0.6050 ca         1 657      -0.091000
      8 C3           1.5770     0.9700     0.2820 ca         1 657       0.158400
      9 C5          -0.0040    -0.8950     0.1760 ca         1 657      -0.064000
     10 O1          -2.3080    -0.4720     0.6540 os         1 657      -0.375900
     11 F1          -4.2820    -0.9590    -0.0410 f          1 657      -0.230967
     12 F2          -3.2760     0.7060    -0.9680 f          1 657      -0.230967
     13 F3          -2.6350    -1.2940    -1.3890 f          1 657      -0.230967
     14 S1           2.7480    -1.2440    -0.2920 ss         1 657      -0.149100
     15 N1           2.8950     1.3170     0.1470 nd         1 657      -0.634100
     16 H4           5.3950     1.1990    -0.3960 hn         1 657       0.440300
     17 H5           5.4260    -0.4760    -0.7220 hn         1 657       0.440300
     18 H1          -1.5640     2.0200     0.9730 ha         1 657       0.155000
     19 H2           0.7420     2.8870     0.7760 ha         1 657       0.157000
     20 H3          -0.2140    -1.9460     0.0290 ha         1 657       0.160000
@<TRIPOS>BOND
     1     1     8 ar  
     2     1     9 ar  
     3     1    14 1   
     4     2     5 1   
     5     2    16 1   
     6     2    17 1   
     7     3    10 1   
     8     3    11 1   
     9     3    12 1   
    10     3    13 1   
    11     4     6 ar  
    12     4     9 ar  
    13     4    10 1   
    14     5    14 1   
    15     5    15 2   
    16     6     7 ar  
    17     6    18 1   
    18     7     8 ar  
    19     7    19 1   
    20     8    15 1   
    21     9    20 1   
@<TRIPOS>SUBSTRUCTURE
     1 657         1 TEMP              0 ****  ****    0 ROOT
