@<TRIPOS>MOLECULE
657
   20    21     1     0     0
SMALL
No Charge or Current Charge


@<TRIPOS>ATOM
      1 C4           1.2000    -0.1130    -0.2350 ca         1 657      -0.195000
      2 N2           4.9010     0.1830    -0.3220 nv         1 657      -1.018200
      3 C7          -3.1030    -0.8840    -0.4230 c3         1 657       0.512000
      4 C6          -1.1050     0.4290     0.2970 ca         1 657       0.074100
      5 C8           3.5640     0.1950    -0.2050 cc         1 657       0.654100
      6 C1          -0.6440     1.5560     1.0090 ca         1 657      -0.089000
      7 C2           0.7340     1.8400     1.0950 ca         1 657      -0.073000
      8 C3           1.6540     0.9910     0.4630 ca         1 657       0.158400
      9 C5          -0.1670    -0.4230    -0.3380 ca         1 657      -0.046000
     10 O1          -2.4730     0.2200     0.2600 os         1 657      -0.399100
     11 F1          -4.4460    -0.8260    -0.2840 f          1 657      -0.109667
     12 F2          -2.8450    -0.8730    -1.7520 f          1 657      -0.109667
     13 F3          -2.7080    -2.0800     0.0690 f          1 657      -0.109667
     14 S1           2.5160    -1.0350    -0.9450 ss         1 657      -0.022200
     15 N1           3.0310     1.1870     0.4890 nd         1 657      -0.634100
     16 H4           5.3580     1.0560    -0.0870 hn         1 657       0.495500
     17 H5           5.2960    -0.3360    -1.0970 hn         1 657       0.495500
     18 H1          -1.3600     2.2120     1.4980 ha         1 657       0.137000
     19 H2           1.0840     2.7100     1.6450 ha         1 657       0.139000
     20 H3          -0.4690    -1.3020    -0.8980 ha         1 657       0.142000
@<TRIPOS>BOND
     1     1     8 ar  
     2     1     9 ar  
     3     1    14 1   
     4     2     5 1   
     5     2    16 1   
     6     2    17 1   
     7     3    10 1   
     8     3    11 1   
     9     3    12 1   
    10     3    13 1   
    11     4     6 ar  
    12     4     9 ar  
    13     4    10 1   
    14     5    14 1   
    15     5    15 2   
    16     6     7 ar  
    17     6    18 1   
    18     7     8 ar  
    19     7    19 1   
    20     8    15 1   
    21     9    20 1   
@<TRIPOS>SUBSTRUCTURE
     1 657         1 TEMP              0 ****  ****    0 ROOT
