@<TRIPOS>MOLECULE
658
   35    37     1     0     0
SMALL
No Charge or Current Charge


@<TRIPOS>ATOM
      1 N3          -3.0310    -1.3270     1.4950 nb         1 658      -0.241000
      2 C4          -3.1180     1.2530    -0.7010 cc         1 658      -0.081300
      3 N2          -2.8410     1.7780     1.5740 nc         1 658      -0.482800
      4 C7          -1.2660    -2.9350     1.3590 ca         1 658      -0.306000
      5 C6          -2.5540    -2.5590     1.7500 ca         1 658       0.159900
      6 C9           1.8390    -1.5780    -0.2860 ca         1 658       0.303000
      7 C13          3.1150     0.4860    -0.5920 ca         1 658      -0.077500
      8 C8          -0.4980    -1.9760     0.7060 ca         1 658       0.408900
      9 N5           0.7790    -2.3050     0.2670 nu         1 658      -0.927900
     10 N1          -2.7280     0.8390     0.5680 na         1 658       0.097300
     11 C2          -3.3200     2.8130     0.9080 cd         1 658       0.268300
     12 C3          -3.5030     2.5430    -0.4700 cd         1 658      -0.236000
     13 N4          -0.9770    -0.7520     0.4430 nb         1 658      -0.238000
     14 C5          -2.2340    -0.4400     0.8450 ca         1 658       0.293500
     15 C10          2.7640    -2.2510    -1.1030 ca         1 658      -0.139000
     16 C11          3.8510    -1.5630    -1.6740 ca         1 658      -0.077500
     17 C12          4.0230    -0.1930    -1.4200 ca         1 658       0.093000
     18 C14          2.0280    -0.2060    -0.0240 ca         1 658      -0.139000
     19 H6          -0.8880    -3.9320     1.5640 ha         1 658       0.136000
     20 H5          -3.2170    -3.2490     2.2700 h4         1 658       0.026100
     21 H10          3.2550     1.5450    -0.3860 ha         1 658       0.130000
     22 H7           0.9460    -3.3110     0.2870 hn         1 658       0.500000
     23 H3          -4.0060     4.8550     0.9120 hc         1 658       0.049033
     24 H1          -4.3580     3.9640     2.4020 hc         1 658       0.049033
     25 H2          -2.7060     4.5190     2.0680 hc         1 658       0.049033
     26 H4          -3.8830     3.2400    -1.2090 ha         1 658       0.146000
     27 H8           2.6380    -3.3110    -1.3070 ha         1 658       0.142500
     28 H9           4.5580    -2.0900    -2.3100 ha         1 658       0.130000
     29 H11          1.3510     0.3300     0.6330 ha         1 658       0.142500
     30 H14         -3.6280    -0.5110    -1.8330 hc         1 658       0.056367
     31 H13         -3.5840     0.9810    -2.7900 hc         1 658       0.056367
     32 H12         -2.0700     0.2160    -2.2740 hc         1 658       0.056367
     33 C15         -3.0990     0.4400    -1.9690 c3         1 658      -0.020800
     34 C1          -3.6130     4.1070     1.6110 c3         1 658      -0.121400
     35 Cl1          5.3810     0.6700    -2.1290 cl         1 658      -0.205000
@<TRIPOS>BOND
     1     1     5 ar  
     2     1    14 ar  
     3     2    10 1   
     4     2    12 2   
     5     2    33 1   
     6     3    10 1   
     7     3    11 2   
     8     4     5 ar  
     9     4     8 ar  
    10     4    19 1   
    11     5    20 1   
    12     6     9 1   
    13     6    15 ar  
    14     6    18 ar  
    15     7    17 ar  
    16     7    18 ar  
    17     7    21 1   
    18     8     9 1   
    19     8    13 ar  
    20     9    22 1   
    21    10    14 1   
    22    11    12 1   
    23    11    34 1   
    24    12    26 1   
    25    13    14 ar  
    26    15    16 ar  
    27    15    27 1   
    28    16    17 ar  
    29    16    28 1   
    30    17    35 1   
    31    18    29 1   
    32    23    34 1   
    33    24    34 1   
    34    25    34 1   
    35    30    33 1   
    36    31    33 1   
    37    32    33 1   
@<TRIPOS>SUBSTRUCTURE
     1 658         1 TEMP              0 ****  ****    0 ROOT
