@<TRIPOS>MOLECULE
658
   35    37     1     0     0
SMALL
bcc


@<TRIPOS>ATOM
      1 N3          -3.1100    -1.7010     0.0230 nb         1 658      -0.767000
      2 C4          -3.9980     1.0290    -0.0130 cc         1 658      -0.030600
      3 N2          -1.8160     1.5930     0.1110 nc         1 658      -0.482800
      4 C7          -1.2630    -3.2080    -0.0430 ca         1 658      -0.454600
      5 C6          -2.6060    -2.9390    -0.0070 ca         1 658       0.488200
      6 C9           1.9740    -1.3420    -0.0870 ca         1 658       0.164600
      7 C13          2.9440     0.8660    -0.0280 ca         1 658      -0.095500
      8 C8          -0.4110    -2.0870    -0.0500 ca         1 658       0.737200
      9 N5           0.9320    -2.2660    -0.0840 nu         1 658      -0.734300
     10 N1          -2.7010     0.5790     0.0360 na         1 658       0.046600
     11 C2          -2.5290     2.6910     0.1130 cd         1 658       0.333600
     12 C3          -3.9090     2.3930     0.0360 cd         1 658      -0.319300
     13 N4          -0.9050    -0.8590    -0.0280 nb         1 658      -0.764000
     14 C5          -2.2190    -0.7350     0.0090 ca         1 658       0.819500
     15 C10          3.2670    -1.8730    -0.1570 ca         1 658      -0.157000
     16 C11          4.3810    -1.0550    -0.1650 ca         1 658      -0.095500
     17 C12          4.2130     0.3200    -0.0990 ca         1 658       0.001400
     18 C14          1.8240     0.0460    -0.0210 ca         1 658      -0.157000
     19 H6          -0.8870    -4.2210    -0.0650 ha         1 658       0.154000
     20 H5          -3.3250    -3.7500     0.0020 h4         1 658       0.026100
     21 H10          2.8120     1.9380     0.0230 ha         1 658       0.148000
     22 H7           1.2280    -3.2300    -0.1190 hn         1 658       0.444800
     23 H3          -2.1400     4.6360    -0.6850 hc         1 658       0.049033
     24 H1          -2.2330     4.5820     1.0660 hc         1 658       0.049033
     25 H2          -0.8060     3.9460     0.2420 hc         1 658       0.049033
     26 H4          -4.7320     3.0890     0.0160 ha         1 658       0.164000
     27 H8           3.4070    -2.9460    -0.2080 ha         1 658       0.160500
     28 H9           5.3680    -1.4920    -0.2210 ha         1 658       0.148000
     29 H11          0.8440     0.4940     0.0340 ha         1 658       0.160500
     30 H14         -5.3530    -0.4580     0.7430 hc         1 658       0.056367
     31 H13         -6.0890     0.8740    -0.1540 hc         1 658       0.056367
     32 H12         -5.2370    -0.4180    -1.0040 hc         1 658       0.056367
     33 C15         -5.2310     0.2050    -0.1110 c3         1 658      -0.020800
     34 C1          -1.8890     4.0330     0.1890 c3         1 658      -0.121400
     35 CL1          5.6030     1.3580    -0.1080 cl         1 658      -0.113400
@<TRIPOS>BOND
     1     1     5 ar  
     2     1    14 ar  
     3     2    10 1   
     4     2    12 2   
     5     2    33 1   
     6     3    10 1   
     7     3    11 2   
     8     4     5 ar  
     9     4     8 ar  
    10     4    19 1   
    11     5    20 1   
    12     6     9 1   
    13     6    15 ar  
    14     6    18 ar  
    15     7    17 ar  
    16     7    18 ar  
    17     7    21 1   
    18     8     9 1   
    19     8    13 ar  
    20     9    22 1   
    21    10    14 1   
    22    11    12 1   
    23    11    34 1   
    24    12    26 1   
    25    13    14 ar  
    26    15    16 ar  
    27    15    27 1   
    28    16    17 ar  
    29    16    28 1   
    30    17    35 1   
    31    18    29 1   
    32    23    34 1   
    33    24    34 1   
    34    25    34 1   
    35    30    33 1   
    36    31    33 1   
    37    32    33 1   
@<TRIPOS>SUBSTRUCTURE
     1 658         1 TEMP              0 ****  ****    0 ROOT
