@<TRIPOS>MOLECULE
659
   63    67     1     0     0
SMALL
bcc


@<TRIPOS>ATOM
      1 C1          -1.9820    -3.9720    -1.3600 c5         1 659       0.151300
      2 C2          -2.5080    -2.9990    -2.4090 c5         1 659       0.103600
      3 C3          -3.8270    -2.5440    -1.7940 c5         1 659       0.080100
      4 C4          -3.4690    -2.5220    -0.3050 c5         1 659       0.276800
      5 O5          -2.5180    -3.5190    -0.1150 os         1 659      -0.388600
      6 F6          -1.6600    -1.9050    -2.5240 f          1 659      -0.228300
      7 O7          -4.8110    -3.5270    -1.9500 oh         1 659      -0.576800
      8 C8          -0.4940    -4.0670    -1.3310 c2         1 659      -0.174200
      9 C9           4.6840     0.8620     2.3030 ca         1 659       0.097100
     10 C10          4.0590     1.8510     1.5730 ca         1 659      -0.107000
     11 C11          3.0460     1.5450     0.6560 cp         1 659      -0.045000
     12 C12          2.6900     0.2190     0.4790 ca         1 659      -0.085000
     13 C13          3.3180    -0.8050     1.1950 ca         1 659      -0.231600
     14 C14          4.3030    -0.4810     2.1350 ca         1 659       0.132100
     15 C15          2.3680     2.6220    -0.0930 cp         1 659      -0.048000
     16 C16          3.0800     3.7230    -0.5700 ca         1 659      -0.097500
     17 C17          2.4510     4.7380    -1.2740 ca         1 659      -0.174500
     18 C18          1.0920     4.6420    -1.5020 ca         1 659       0.134900
     19 C19          0.3500     3.5690    -1.0470 ca         1 659      -0.174500
     20 C20          0.9960     2.5640    -0.3410 ca         1 659      -0.097500
     21 O21          4.9280    -1.3800     2.9010 oh         1 659      -0.535100
     22 F23          0.4740     5.6210    -2.1820 f          1 659      -0.144900
     23 C24          2.9740    -2.2410     1.0320 c          1 659       0.699700
     24 N25          2.2870    -2.5980    -0.0560 ns         1 659      -0.551900
     25 O26          3.3330    -3.0660     1.8850 o          1 659      -0.650100
     26 C27          1.7710    -3.9320    -0.3120 c3         1 659       0.128200
     27 C28          0.2740    -3.9040    -0.2620 c2         1 659      -0.165200
     28 N29         -2.9230    -1.2300     0.0960 na         1 659      -0.278000
     29 N30         -1.4800     0.3690     0.6640 nc         1 659      -0.572100
     30 C31         -1.6240    -0.8810     0.3320 cd         1 659       0.427700
     31 C32         -2.7490     0.8800     0.6410 ca         1 659      -0.224200
     32 C33         -3.6630    -0.0990     0.2900 ca         1 659       0.447800
     33 N34         -4.9810     0.0540     0.1640 nb         1 659      -0.754000
     34 C35         -5.3530     1.2970     0.4170 ca         1 659       0.707900
     35 N36         -4.5930     2.3350     0.7620 nb         1 659      -0.820000
     36 C37         -3.2730     2.1640     0.8860 ca         1 659       0.771200
     37 N38         -2.4990     3.1980     1.2240 nu         1 659      -0.856900
     38 C39         -3.0080     4.5160     1.5140 c3         1 659       0.221100
     39 H1          -2.4000    -4.9610    -1.5850 h1         1 659       0.084700
     40 H2          -2.6120    -3.4550    -3.3950 h1         1 659       0.078700
     41 H3          -4.1440    -1.5630    -2.1650 h1         1 659       0.094700
     42 H4          -4.3470    -2.7110     0.3170 h2         1 659       0.129700
     43 HO7         -5.0670    -3.5690    -2.8770 ho         1 659       0.418000
     44 H8          -0.0390    -4.3090    -2.2880 ha         1 659       0.131000
     45 H10          4.3460     2.8810     1.7460 ha         1 659       0.152000
     46 H12          1.9070    -0.0120    -0.2330 ha         1 659       0.133000
     47 H16          4.1490     3.7910    -0.4080 ha         1 659       0.150500
     48 H17          3.0120     5.5850    -1.6470 ha         1 659       0.152000
     49 H19         -0.7160     3.5210    -1.2310 ha         1 659       0.152000
     50 H20          0.4060     1.7380     0.0400 ha         1 659       0.150500
     51 HO21         4.4690    -2.2440     2.7480 ho         1 659       0.492000
     52 HO22         5.9620     0.4180     3.6510 ho         1 659       0.448000
     53 HN25         2.1110    -1.9130    -0.7720 hn         1 659       0.324500
     54 H27          2.1230    -4.2680    -1.2880 h1         1 659       0.070200
     55 H27A         2.1770    -4.6090     0.4360 h1         1 659       0.070200
     56 H28         -0.1600    -3.6900     0.7100 ha         1 659       0.148000
     57 H31         -0.8160    -1.5880     0.2490 h5         1 659       0.073800
     58 H35         -6.4140     1.5040     0.3360 h5         1 659       0.046100
     59 HN38        -1.5250     3.0140     1.3950 hn         1 659       0.459800
     60 H39         -2.1640     5.1640     1.7350 h1         1 659       0.045367
     61 H39A        -3.5470     4.9320     0.6630 h1         1 659       0.045367
     62 H39B        -3.6780     4.5170     2.3760 h1         1 659       0.045367
     63 O22          5.6380     1.2010     3.1890 oh         1 659      -0.495100
@<TRIPOS>BOND
     1     1     2 1   
     2     1     5 1   
     3     1     8 1   
     4     1    39 1   
     5     2     3 1   
     6     2     6 1   
     7     2    40 1   
     8     3     4 1   
     9     3     7 1   
    10     3    41 1   
    11     4     5 1   
    12     4    28 1   
    13     4    42 1   
    14     7    43 1   
    15     8    27 2   
    16     8    44 1   
    17     9    10 ar  
    18     9    14 ar  
    19     9    63 1   
    20    10    11 ar  
    21    10    45 1   
    22    11    12 ar  
    23    11    15 1   
    24    12    13 ar  
    25    12    46 1   
    26    13    14 ar  
    27    13    23 1   
    28    14    21 1   
    29    15    16 ar  
    30    15    20 ar  
    31    16    17 ar  
    32    16    47 1   
    33    17    18 ar  
    34    17    48 1   
    35    18    19 ar  
    36    18    22 1   
    37    19    20 ar  
    38    19    49 1   
    39    20    50 1   
    40    21    51 1   
    41    23    24 1   
    42    23    25 2   
    43    24    26 1   
    44    24    53 1   
    45    26    27 1   
    46    26    54 1   
    47    26    55 1   
    48    27    56 1   
    49    28    30 1   
    50    28    32 1   
    51    29    30 2   
    52    29    31 1   
    53    30    57 1   
    54    31    32 ar  
    55    31    36 ar  
    56    32    33 ar  
    57    33    34 ar  
    58    34    35 ar  
    59    34    58 1   
    60    35    36 ar  
    61    36    37 1   
    62    37    38 1   
    63    37    59 1   
    64    38    60 1   
    65    38    61 1   
    66    38    62 1   
    67    52    63 1   
@<TRIPOS>SUBSTRUCTURE
     1 659         1 TEMP              0 ****  ****    0 ROOT
