@<TRIPOS>MOLECULE
659
   63    67     1     0     0
SMALL
No Charge or Current Charge


@<TRIPOS>ATOM
      1 C1          -1.8340    -3.7080    -1.6780 c5         1 659       0.174500
      2 C2          -2.3220    -2.4760    -2.5290 c5         1 659       0.122300
      3 C3          -3.6820    -2.1320    -1.8570 c5         1 659       0.103300
      4 C4          -3.3230    -2.4280    -0.3580 c5         1 659       0.329300
      5 O5          -2.5610    -3.6560    -0.4210 os         1 659      -0.435000
      6 F6          -1.4560    -1.3740    -2.4520 f          1 659      -0.247000
      7 O7          -4.7640    -2.9550    -2.3520 oh         1 659      -0.699000
      8 C8          -0.3340    -3.6230    -1.3740 c2         1 659      -0.224200
      9 C9           3.4520     1.5880     2.2580 ca         1 659       0.097100
     10 C10          2.7260     2.3160     1.3060 ca         1 659      -0.089000
     11 C11          1.9950     1.6570     0.2870 cp         1 659      -0.045000
     12 C12          2.0200     0.2380     0.2690 ca         1 659      -0.067000
     13 C13          2.7360    -0.5190     1.2340 ca         1 659      -0.231600
     14 C14          3.4610     0.1790     2.2240 ca         1 659       0.132100
     15 C15          1.2080     2.4310    -0.7330 cp         1 659      -0.048000
     16 C16          1.6120     3.7290    -1.1440 ca         1 659      -0.079500
     17 C17          0.8650     4.4590    -2.0850 ca         1 659      -0.156500
     18 C18         -0.2990     3.9060    -2.6360 ca         1 659       0.170000
     19 C19         -0.7190     2.6250    -2.2550 ca         1 659      -0.156500
     20 C20          0.0280     1.8940    -1.3150 ca         1 659      -0.079500
     21 O21          4.1750    -0.5060     3.1690 oh         1 659      -0.574100
     22 F23         -1.0170     4.6090    -3.5380 f          1 659      -0.180000
     23 C24          2.7150    -2.0330     1.2220 c          1 659       0.632700
     24 N25          1.8710    -2.6210     0.3140 ns         1 659      -0.484900
     25 O26          3.4050    -2.6980     1.9850 o          1 659      -0.650100
     26 C27          1.6190    -4.0510     0.1810 c3         1 659       0.128200
     27 C28          0.1920    -4.2200    -0.2860 c2         1 659      -0.215200
     28 N29         -2.5480    -1.4230     0.3860 na         1 659      -0.307300
     29 N30         -1.0080    -0.5810     1.8910 nc         1 659      -0.572100
     30 C31         -1.5070    -1.6800     1.2980 cd         1 659       0.427700
     31 C32         -1.7900     0.4240     1.3360 ca         1 659      -0.093600
     32 C33         -2.7160    -0.0600     0.4450 ca         1 659       0.119500
     33 N34         -3.5780     0.7570    -0.1930 nb         1 659      -0.228000
     34 C35         -3.4680     2.0770     0.0880 ca         1 659       0.181900
     35 N36         -2.5880     2.6520     0.9380 nb         1 659      -0.294000
     36 C37         -1.7420     1.8150     1.5690 ca         1 659       0.442900
     37 N38         -0.8070     2.3560     2.4430 nu         1 659      -0.912100
     38 C39         -0.3600     3.7570     2.4930 c3         1 659       0.221100
     39 H1          -2.0880    -4.6510    -2.1810 h1         1 659       0.084700
     40 H2          -2.4320    -2.7330    -3.5900 h1         1 659       0.078700
     41 H3          -3.9270    -1.0710    -2.0000 h1         1 659       0.094700
     42 H4          -4.2390    -2.5790     0.2270 h2         1 659       0.129700
     43 HO7         -5.0400    -2.5950    -3.2290 ho         1 659       0.517000
     44 H8           0.3160    -3.0400    -2.0290 ha         1 659       0.181000
     45 H10          2.7210     3.4000     1.3720 ha         1 659       0.134000
     46 H12          1.4790    -0.2660    -0.5240 ha         1 659       0.115000
     47 H16          2.5200     4.1720    -0.7420 ha         1 659       0.132500
     48 H17          1.1890     5.4510    -2.3900 ha         1 659       0.134000
     49 H19         -1.6230     2.2000    -2.6840 ha         1 659       0.134000
     50 H20         -0.3280     0.9100    -1.0260 ha         1 659       0.132500
     51 HO21         4.0580    -1.4710     2.9460 ho         1 659       0.531000
     52 HO22         4.5740     1.5450     3.7820 ho         1 659       0.487000
     53 HN25         1.3150    -1.9960    -0.2500 hn         1 659       0.324500
     54 H27          2.3190    -4.4800    -0.5490 h1         1 659       0.070200
     55 H27A         1.7670    -4.5500     1.1490 h1         1 659       0.070200
     56 H28         -0.4280    -4.8160     0.3870 ha         1 659       0.198000
     57 H31         -1.1730    -2.6920     1.4940 h5         1 659       0.073800
     58 H35         -4.1570     2.7440    -0.4270 h5         1 659       0.046100
     59 HN38        -0.1670     1.6480     2.8070 hn         1 659       0.515000
     60 H39          0.4110     3.8870     3.2640 h1         1 659       0.045367
     61 H39A         0.0620     4.0600     1.5250 h1         1 659       0.045367
     62 H39B        -1.2010     4.4230     2.7280 h1         1 659       0.045367
     63 O22          4.1500     2.2440     3.2330 oh         1 659      -0.534100
@<TRIPOS>BOND
     1     1     2 1   
     2     1     5 1   
     3     1     8 1   
     4     1    39 1   
     5     2     3 1   
     6     2     6 1   
     7     2    40 1   
     8     3     4 1   
     9     3     7 1   
    10     3    41 1   
    11     4     5 1   
    12     4    28 1   
    13     4    42 1   
    14     7    43 1   
    15     8    27 2   
    16     8    44 1   
    17     9    10 ar  
    18     9    14 ar  
    19     9    63 1   
    20    10    11 ar  
    21    10    45 1   
    22    11    12 ar  
    23    11    15 1   
    24    12    13 ar  
    25    12    46 1   
    26    13    14 ar  
    27    13    23 1   
    28    14    21 1   
    29    15    16 ar  
    30    15    20 ar  
    31    16    17 ar  
    32    16    47 1   
    33    17    18 ar  
    34    17    48 1   
    35    18    19 ar  
    36    18    22 1   
    37    19    20 ar  
    38    19    49 1   
    39    20    50 1   
    40    21    51 1   
    41    23    24 1   
    42    23    25 2   
    43    24    26 1   
    44    24    53 1   
    45    26    27 1   
    46    26    54 1   
    47    26    55 1   
    48    27    56 1   
    49    28    30 1   
    50    28    32 1   
    51    29    30 2   
    52    29    31 1   
    53    30    57 1   
    54    31    32 ar  
    55    31    36 ar  
    56    32    33 ar  
    57    33    34 ar  
    58    34    35 ar  
    59    34    58 1   
    60    35    36 ar  
    61    36    37 1   
    62    37    38 1   
    63    37    59 1   
    64    38    60 1   
    65    38    61 1   
    66    38    62 1   
    67    52    63 1   
@<TRIPOS>SUBSTRUCTURE
     1 659         1 TEMP              0 ****  ****    0 ROOT
