@<TRIPOS>MOLECULE
65A
   46    49     1     0     0
SMALL
abcg2


@<TRIPOS>ATOM
      1 C11         -1.8230    -2.4550    -0.4130 cc         1 65A       0.391900
      2 C13         -3.2320    -2.0540    -0.6680 c3         1 65A      -0.105400
      3 C16         -2.9780     1.7250    -2.0590 ca         1 65A      -0.149000
      4 C15         -1.9010     0.8870    -1.7930 ca         1 65A      -0.052000
      5 C14         -1.4610     0.6850    -0.4970 cp         1 65A      -0.079000
      6 C9          -0.3660    -0.2730    -0.2250 cp         1 65A       0.163000
      7 C19         -2.1150     1.3210     0.5640 ca         1 65A       0.171100
      8 C20         -2.2290     1.6870     2.9040 c3         1 65A       0.147900
      9 C8           3.8640     0.7530    -1.5200 c3         1 65A      -0.085600
     10 C6           3.8110     0.7530     0.0100 c6         1 65A      -0.036000
     11 N3           1.6570    -2.2390     0.2060 nb         1 65A      -0.708000
     12 C4           1.3840     1.4960     0.0890 c          1 65A       0.598700
     13 C5           2.8010     1.7830     0.5130 c6         1 65A      -0.174400
     14 C2           1.9340    -0.9480     0.2400 ca         1 65A       0.437300
     15 C1           3.3660    -0.6080     0.5370 c6         1 65A      -0.134700
     16 O1           0.6210     2.4010    -0.1760 o          1 65A      -0.521100
     17 C7           5.1960     1.0840     0.5570 c3         1 65A      -0.085600
     18 C3           0.9640     0.0750     0.0390 ca         1 65A      -0.255600
     19 O2          -1.6280     1.0580     1.7900 os         1 65A      -0.337100
     20 C18         -3.1990     2.1510     0.3060 ca         1 65A      -0.198000
     21 C17         -3.6220     2.3510    -1.0050 ca         1 65A      -0.064000
     22 C10         -0.6630    -1.6330    -0.2410 ca         1 65A      -0.288900
     23 C12          0.3860    -2.5410    -0.0180 ca         1 65A       0.407500
     24 N2          -0.1600    -3.7650    -0.0760 na         1 65A      -0.166100
     25 N1          -1.4840    -3.7140    -0.3060 nd         1 65A      -0.521100
     26 H1          -3.3490    -1.6230    -1.6630 hc         1 65A       0.054700
     27 H2          -3.8900    -2.9180    -0.5910 hc         1 65A       0.054700
     28 H3          -3.5660    -1.3000     0.0450 hc         1 65A       0.054700
     29 H4          -3.3090     1.8790    -3.0770 ha         1 65A       0.117000
     30 H5          -1.3930     0.3840    -2.6070 ha         1 65A       0.118000
     31 H6          -1.6760     1.3560     3.7800 h1         1 65A       0.041033
     32 H7          -2.1680     2.7760     2.8380 h1         1 65A       0.041033
     33 H8          -3.2770     1.3980     3.0200 h1         1 65A       0.041033
     34 H9           4.1520     1.7360    -1.8970 hc         1 65A       0.038533
     35 H10          4.6010     0.0300    -1.8760 hc         1 65A       0.038533
     36 H11          2.9080     0.4950    -1.9800 hc         1 65A       0.038533
     37 H12          2.8130     1.7880     1.6110 hc         1 65A       0.069200
     38 H13          3.0640     2.7930     0.1890 hc         1 65A       0.069200
     39 H14          4.0000    -1.4060     0.1430 hc         1 65A       0.068200
     40 H15          3.4910    -0.6260     1.6270 hc         1 65A       0.068200
     41 H16          5.5340     2.0590     0.2020 hc         1 65A       0.038533
     42 H17          5.1990     1.1070     1.6490 hc         1 65A       0.038533
     43 H18          5.9280     0.3410     0.2350 hc         1 65A       0.038533
     44 H19         -3.7250     2.6500     1.1080 ha         1 65A       0.117000
     45 H20         -4.4670     3.0000    -1.1910 ha         1 65A       0.111000
     46 H21          0.2970    -4.6540     0.0500 hn         1 65A       0.387000
@<TRIPOS>BOND
     1     1     2 1   
     2     1    22 1   
     3     1    25 2   
     4     2    26 1   
     5     2    27 1   
     6     2    28 1   
     7     3     4 ar  
     8     3    21 ar  
     9     3    29 1   
    10     4     5 ar  
    11     4    30 1   
    12     5     6 1   
    13     5     7 ar  
    14     6    18 ar  
    15     6    22 ar  
    16     7    19 1   
    17     7    20 ar  
    18     8    19 1   
    19     8    31 1   
    20     8    32 1   
    21     8    33 1   
    22     9    10 1   
    23     9    34 1   
    24     9    35 1   
    25     9    36 1   
    26    10    13 1   
    27    10    15 1   
    28    10    17 1   
    29    11    14 ar  
    30    11    23 ar  
    31    12    13 1   
    32    12    16 2   
    33    12    18 1   
    34    13    37 1   
    35    13    38 1   
    36    14    15 1   
    37    14    18 ar  
    38    15    39 1   
    39    15    40 1   
    40    17    41 1   
    41    17    42 1   
    42    17    43 1   
    43    20    21 ar  
    44    20    44 1   
    45    21    45 1   
    46    22    23 ar  
    47    23    24 1   
    48    24    25 1   
    49    24    46 1   
@<TRIPOS>SUBSTRUCTURE
     1 65A         1 TEMP              0 ****  ****    0 ROOT
