@<TRIPOS>MOLECULE
65A
   46    49     1     0     0
SMALL
No Charge or Current Charge


@<TRIPOS>ATOM
      1 C11         -1.8480    -2.5340    -0.3850 cc         1 65A       0.391900
      2 C13         -3.2390    -2.0200    -0.6260 c3         1 65A      -0.105400
      3 C16         -3.0290     1.7570    -2.0770 ca         1 65A      -0.149000
      4 C15         -1.9740     0.8600    -1.8430 ca         1 65A      -0.052000
      5 C14         -1.5110     0.6140    -0.5290 cp         1 65A      -0.079000
      6 C9          -0.3990    -0.3500    -0.2910 cp         1 65A       0.163000
      7 C19         -2.1290     1.2980     0.5470 ca         1 65A       0.171100
      8 C20         -2.1880     1.6610     2.9890 c3         1 65A       0.147900
      9 C8           4.0090     0.8250    -1.5260 c3         1 65A      -0.085600
     10 C6           3.8220     0.7850     0.0230 c6         1 65A      -0.036000
     11 N3           1.6330    -2.2890     0.2200 nb         1 65A      -0.708000
     12 C4           1.3550     1.4700    -0.1030 c          1 65A       0.598700
     13 C5           2.7390     1.8030     0.4680 c6         1 65A      -0.174400
     14 C2           1.9250    -0.9710     0.1890 ca         1 65A       0.437300
     15 C1           3.3870    -0.6340     0.4840 c6         1 65A      -0.134700
     16 O1           0.6810     2.3520    -0.6160 o          1 65A      -0.521100
     17 C7           5.1930     1.1560     0.6620 c3         1 65A      -0.085600
     18 C3           0.9570     0.0200    -0.0610 ca         1 65A      -0.255600
     19 O2          -1.6490     1.0290     1.8150 os         1 65A      -0.337100
     20 C18         -3.1890     2.2000     0.3110 ca         1 65A      -0.198000
     21 C17         -3.6370     2.4260    -1.0020 ca         1 65A      -0.064000
     22 C10         -0.6450    -1.7390    -0.2450 ca         1 65A      -0.288900
     23 C12          0.3570    -2.6360    -0.0020 ca         1 65A       0.407500
     24 N2          -0.2310    -3.8770    -0.0190 na         1 65A      -0.166100
     25 N1          -1.6070    -3.8430    -0.2530 nd         1 65A      -0.521100
     26 H1          -3.3240    -1.5830    -1.6270 hc         1 65A       0.054700
     27 H2          -3.9770    -2.8270    -0.5520 hc         1 65A       0.054700
     28 H3          -3.5080    -1.2580     0.1120 hc         1 65A       0.054700
     29 H4          -3.3760     1.9340    -3.0920 ha         1 65A       0.117000
     30 H5          -1.5100     0.3460    -2.6820 ha         1 65A       0.118000
     31 H6          -1.6630     1.3080     3.8850 h1         1 65A       0.041033
     32 H7          -2.0720     2.7510     2.9330 h1         1 65A       0.041033
     33 H8          -3.2540     1.4250     3.1040 h1         1 65A       0.041033
     34 H9           4.2820     1.8300    -1.8690 hc         1 65A       0.038533
     35 H10          4.8030     0.1410    -1.8500 hc         1 65A       0.038533
     36 H11          3.0960     0.5340    -2.0590 hc         1 65A       0.038533
     37 H12          2.6480     1.7000     1.5570 hc         1 65A       0.069200
     38 H13          3.0050     2.8420     0.2340 hc         1 65A       0.069200
     39 H14          4.0430    -1.3890     0.0280 hc         1 65A       0.068200
     40 H15          3.5360    -0.7290     1.5680 hc         1 65A       0.068200
     41 H16          5.5260     2.1520     0.3460 hc         1 65A       0.038533
     42 H17          5.1360     1.1640     1.7580 hc         1 65A       0.038533
     43 H18          5.9740     0.4410     0.3800 hc         1 65A       0.038533
     44 H19         -3.6740     2.7290     1.1260 ha         1 65A       0.117000
     45 H20         -4.4540     3.1200    -1.1860 ha         1 65A       0.111000
     46 H21          0.2690    -4.7490     0.1270 hn         1 65A       0.387000
@<TRIPOS>BOND
     1     1     2 1   
     2     1    22 1   
     3     1    25 2   
     4     2    26 1   
     5     2    27 1   
     6     2    28 1   
     7     3     4 ar  
     8     3    21 ar  
     9     3    29 1   
    10     4     5 ar  
    11     4    30 1   
    12     5     6 1   
    13     5     7 ar  
    14     6    18 ar  
    15     6    22 ar  
    16     7    19 1   
    17     7    20 ar  
    18     8    19 1   
    19     8    31 1   
    20     8    32 1   
    21     8    33 1   
    22     9    10 1   
    23     9    34 1   
    24     9    35 1   
    25     9    36 1   
    26    10    13 1   
    27    10    15 1   
    28    10    17 1   
    29    11    14 ar  
    30    11    23 ar  
    31    12    13 1   
    32    12    16 2   
    33    12    18 1   
    34    13    37 1   
    35    13    38 1   
    36    14    15 1   
    37    14    18 ar  
    38    15    39 1   
    39    15    40 1   
    40    17    41 1   
    41    17    42 1   
    42    17    43 1   
    43    20    21 ar  
    44    20    44 1   
    45    21    45 1   
    46    22    23 ar  
    47    23    24 1   
    48    24    25 1   
    49    24    46 1   
@<TRIPOS>SUBSTRUCTURE
     1 65A         1 TEMP              0 ****  ****    0 ROOT
