@<TRIPOS>MOLECULE
65B
   43    45     1     0     0
SMALL
bcc


@<TRIPOS>ATOM
      1 C1          -2.9170     0.5130    -0.0040 ca         1 65B       0.122100
      2 O17         -2.4140    -0.7680     0.0300 os         1 65B      -0.348400
      3 C2          -3.1910     1.0770    -1.2460 ca         1 65B      -0.062300
      4 C7          -2.8590     0.3540    -2.5150 c3         1 65B      -0.049800
      5 C3          -3.7790     2.3340    -1.2630 ca         1 65B      -0.093000
      6 C4          -4.0670     2.9890    -0.0690 ca         1 65B      -0.008000
      7 C5          -3.7760     2.3990     1.1590 ca         1 65B      -0.093000
      8 C6          -3.1880     1.1430     1.2080 ca         1 65B      -0.062300
      9 C9          -2.8500     0.4910     2.5130 c3         1 65B      -0.049800
     10 C13         -1.0890    -0.9460     0.0390 ca         1 65B       0.769600
     11 N12         -0.3100     0.1110     0.0080 nb         1 65B      -0.875000
     12 C11          1.0030    -0.1330     0.0200 ca         1 65B       0.991900
     13 N5           1.7630     1.0010    -0.0150 nu         1 65B      -0.730300
     14 N16          1.5790    -1.3150     0.0600 nb         1 65B      -0.865000
     15 C15          0.7870    -2.3970     0.0900 ca         1 65B       0.801200
     16 N18          1.3950    -3.5810     0.1280 nv         1 65B      -0.954500
     17 C14         -0.6120    -2.2460     0.0800 ca         1 65B      -0.427500
     18 C21          3.1280     1.1960    -0.0070 ca         1 65B       0.206600
     19 C22          3.5620     2.5300    -0.0750 ca         1 65B      -0.182000
     20 C23          4.9020     2.8420    -0.0700 ca         1 65B      -0.058000
     21 C24          5.8550     1.8220     0.0060 ca         1 65B      -0.057000
     22 C25          5.4310     0.4960     0.0730 ca         1 65B      -0.058000
     23 C26          4.0860     0.1780     0.0670 ca         1 65B      -0.182000
     24 C27          7.2430     2.1340     0.0140 cg         1 65B       0.240800
     25 N27          8.3680     2.3870     0.0250 n1         1 65B      -0.369800
     26 C8          -4.6730     4.2800    -0.1030 cg         1 65B       0.233800
     27 N4          -5.1640     5.3230    -0.1330 n1         1 65B      -0.358800
     28 BR          -1.7810    -3.7080     0.1200 br         1 65B      -0.059100
     29 H2'1        -3.2760    -0.6530    -2.5280 hc         1 65B       0.052533
     30 H2'2        -3.2480     0.8910    -3.3780 hc         1 65B       0.052533
     31 H2'3        -1.7780     0.2620    -2.6440 hc         1 65B       0.052533
     32 H3          -4.0100     2.8050    -2.2100 ha         1 65B       0.147000
     33 H5          -4.0020     2.9210     2.0790 ha         1 65B       0.147000
     34 H6'1        -1.7700     0.4020     2.6400 hc         1 65B       0.052533
     35 H6'2        -3.2320     1.0780     3.3460 hc         1 65B       0.052533
     36 H6'3        -3.2720    -0.5110     2.5870 hc         1 65B       0.052533
     37 HN5          1.2050     1.8420    -0.0570 hn         1 65B       0.461800
     38 H181         2.4000    -3.6160     0.1330 hn         1 65B       0.455300
     39 H182         0.8960    -4.4530     0.1560 hn         1 65B       0.455300
     40 H22          2.8350     3.3300    -0.1330 ha         1 65B       0.153500
     41 H23          5.2120     3.8770    -0.1240 ha         1 65B       0.143500
     42 H25          6.1600    -0.3010     0.1320 ha         1 65B       0.143500
     43 H26          3.7840    -0.8540     0.1200 ha         1 65B       0.153500
@<TRIPOS>BOND
     1     1     2 1   
     2     1     3 ar  
     3     1     8 ar  
     4     2    10 1   
     5     3     4 1   
     6     3     5 ar  
     7     4    29 1   
     8     4    30 1   
     9     4    31 1   
    10     5     6 ar  
    11     5    32 1   
    12     6     7 ar  
    13     6    26 1   
    14     7     8 ar  
    15     7    33 1   
    16     8     9 1   
    17     9    34 1   
    18     9    35 1   
    19     9    36 1   
    20    10    11 ar  
    21    10    17 ar  
    22    11    12 ar  
    23    12    13 1   
    24    12    14 ar  
    25    13    18 1   
    26    13    37 1   
    27    14    15 ar  
    28    15    16 1   
    29    15    17 ar  
    30    16    38 1   
    31    16    39 1   
    32    17    28 1   
    33    18    19 ar  
    34    18    23 ar  
    35    19    20 ar  
    36    19    40 1   
    37    20    21 ar  
    38    20    41 1   
    39    21    22 ar  
    40    21    24 1   
    41    22    23 ar  
    42    22    42 1   
    43    23    43 1   
    44    24    25 3   
    45    26    27 3   
@<TRIPOS>SUBSTRUCTURE
     1 65B         1 TEMP              0 ****  ****    0 ROOT
