@<TRIPOS>MOLECULE
65B
   43    45     1     0     0
SMALL
No Charge or Current Charge


@<TRIPOS>ATOM
      1 C1          -3.0070     0.4700     0.0060 ca         1 65B       0.122100
      2 O17         -2.4290    -0.7790    -0.0250 os         1 65B      -0.348400
      3 C2          -3.3380     1.1170    -1.2040 ca         1 65B      -0.062300
      4 C7          -3.0600     0.4480    -2.5470 c3         1 65B      -0.049800
      5 C3          -3.9250     2.3960    -1.1640 ca         1 65B      -0.075000
      6 C4          -4.1850     3.0230     0.0690 ca         1 65B      -0.008000
      7 C5          -3.8580     2.3670     1.2710 ca         1 65B      -0.075000
      8 C6          -3.2710     1.0880     1.2480 ca         1 65B      -0.062300
      9 C9          -2.9210     0.3880     2.5580 c3         1 65B      -0.049800
     10 C13         -1.0640    -0.9530    -0.0540 ca         1 65B       0.441300
     11 N12         -0.2400     0.1140    -0.0620 nb         1 65B      -0.349000
     12 C11          1.0710    -0.1430    -0.0820 ca         1 65B       0.465900
     13 N5           1.8650     0.9860    -0.1200 nu         1 65B      -0.923900
     14 N16          1.6570    -1.3460    -0.1210 nb         1 65B      -0.339000
     15 C15          0.8330    -2.3920    -0.1160 ca         1 65B       0.472900
     16 N18          1.4370    -3.6020    -0.1480 nv         1 65B      -1.064900
     17 C14         -0.5560    -2.2610    -0.0790 ca         1 65B      -0.296900
     18 C21          3.2390     1.2260    -0.0450 ca         1 65B       0.345000
     19 C22          3.7490     2.3910    -0.6410 ca         1 65B      -0.164000
     20 C23          5.1230     2.6860    -0.5810 ca         1 65B      -0.040000
     21 C24          6.0020     1.8140     0.0900 ca         1 65B      -0.057000
     22 C25          5.4940     0.6540     0.7040 ca         1 65B      -0.040000
     23 C26          4.1190     0.3660     0.6390 ca         1 65B      -0.164000
     24 C27          7.4060     2.1120     0.1550 cg         1 65B       0.330000
     25 N27          8.5450     2.3610     0.2130 n1         1 65B      -0.459000
     26 C8          -4.7840     4.3300     0.1010 cg         1 65B       0.323000
     27 N4          -5.2690     5.3920     0.1170 n1         1 65B      -0.448000
     28 Br          -1.7290    -3.7890    -0.0690 br         1 65B      -0.059100
     29 H2'1        -3.4750    -0.5660    -2.5760 hc         1 65B       0.052533
     30 H2'2        -3.5020     1.0060    -3.3810 hc         1 65B       0.052533
     31 H2'3        -1.9820     0.3740    -2.7320 hc         1 65B       0.052533
     32 H3          -4.1790     2.9050    -2.0930 ha         1 65B       0.129000
     33 H5          -4.0610     2.8540     2.2230 ha         1 65B       0.129000
     34 H6'1        -1.8340     0.3210     2.6870 hc         1 65B       0.052533
     35 H6'2        -3.3250     0.9210     3.4260 hc         1 65B       0.052533
     36 H6'3        -3.3250    -0.6310     2.5810 hc         1 65B       0.052533
     37 HN5          1.3150     1.8200    -0.3170 hn         1 65B       0.517000
     38 H181         2.4290    -3.6410     0.0700 hn         1 65B       0.510500
     39 H182         0.8850    -4.4190     0.0990 hn         1 65B       0.510500
     40 H22          3.0810     3.0710    -1.1630 ha         1 65B       0.135500
     41 H23          5.5020     3.5900    -1.0550 ha         1 65B       0.125500
     42 H25          6.1610    -0.0220     1.2360 ha         1 65B       0.125500
     43 H26          3.7440    -0.5200     1.1400 ha         1 65B       0.135500
@<TRIPOS>BOND
     1     1     2 1   
     2     1     3 ar  
     3     1     8 ar  
     4     2    10 1   
     5     3     4 1   
     6     3     5 ar  
     7     4    29 1   
     8     4    30 1   
     9     4    31 1   
    10     5     6 ar  
    11     5    32 1   
    12     6     7 ar  
    13     6    26 1   
    14     7     8 ar  
    15     7    33 1   
    16     8     9 1   
    17     9    34 1   
    18     9    35 1   
    19     9    36 1   
    20    10    11 ar  
    21    10    17 ar  
    22    11    12 ar  
    23    12    13 1   
    24    12    14 ar  
    25    13    18 1   
    26    13    37 1   
    27    14    15 ar  
    28    15    16 1   
    29    15    17 ar  
    30    16    38 1   
    31    16    39 1   
    32    17    28 1   
    33    18    19 ar  
    34    18    23 ar  
    35    19    20 ar  
    36    19    40 1   
    37    20    21 ar  
    38    20    41 1   
    39    21    22 ar  
    40    21    24 1   
    41    22    23 ar  
    42    22    42 1   
    43    23    43 1   
    44    24    25 3   
    45    26    27 3   
@<TRIPOS>SUBSTRUCTURE
     1 65B         1 TEMP              0 ****  ****    0 ROOT
