@<TRIPOS>MOLECULE
65C
   50    53     1     0     0
SMALL
abcg2


@<TRIPOS>ATOM
      1 C2          -5.0440    -3.5820     0.7300 cc         1 65C      -0.226000
      2 C3          -3.4180    -2.2040     0.2120 cc         1 65C       0.469000
      3 C4          -2.0800    -1.6300     0.1640 ca         1 65C      -0.276500
      4 C5          -1.8410    -0.2520     0.1780 cp         1 65C       0.257500
      5 C6           0.3960    -0.6030     0.0130 ca         1 65C       0.390900
      6 N7           0.2850    -1.9340     0.0040 nb         1 65C      -0.242000
      7 C9           6.4820    -0.2580    -0.0220 ca         1 65C       0.645900
      8 C10          8.7220    -0.7200    -0.0810 ca         1 65C       0.439900
      9 C11          9.0700     0.6090     0.1620 ca         1 65C      -0.153000
     10 C12          8.0290     1.5340     0.3220 ca         1 65C       0.012000
     11 C13          6.7300     1.1100     0.2330 ca         1 65C      -0.249000
     12 C14         10.4310     0.9950     0.2480 cg         1 65C       0.340000
     13 C21         -3.3950     1.0340     1.6250 ca         1 65C      -0.070000
     14 C19         -4.9970     2.5530     0.7250 ca         1 65C       0.135000
     15 C18         -4.5760     2.2640    -0.5630 ca         1 65C      -0.101000
     16 C17         -3.5540     1.3460    -0.7320 ca         1 65C       0.176000
     17 CL          -3.0410     0.9560    -2.3340 cl         1 65C      -0.178000
     18 C20         -4.4170     1.9470     1.8270 ca         1 65C      -0.108000
     19 C16         -2.9500     0.7210     0.3480 cp         1 65C      -0.133500
     20 N2          -0.6290     0.2560     0.0980 nb         1 65C      -0.233000
     21 C15         -0.9380    -2.4210     0.0770 ca         1 65C       0.157900
     22 N           -3.7170    -3.3210     0.9150 na         1 65C      -0.296500
     23 N1          -4.4770    -1.7460    -0.4120 nd         1 65C      -0.658000
     24 C1          -5.5020    -2.5920    -0.0970 cd         1 65C       0.252300
     25 C           -6.8790    -2.3940    -0.6290 c3         1 65C      -0.109400
     26 N3           1.6260    -0.0670    -0.0520 nu         1 65C      -0.921100
     27 C7           2.8260    -0.8420    -0.2420 c3         1 65C       0.221800
     28 C8           4.0370     0.0280     0.0500 c3         1 65C       0.215800
     29 N4           5.2390    -0.7470    -0.1340 nu         1 65C      -0.933100
     30 N5           7.4810    -1.1420    -0.1710 nb         1 65C      -0.761000
     31 N6          11.5400     1.3060     0.3210 n1         1 65C      -0.463000
     32 H1          -5.5360    -4.4210     1.1930 h4         1 65C       0.158000
     33 H2           9.4980    -1.4670    -0.2080 h4         1 65C       0.028100
     34 H3           8.2480     2.5760     0.5140 ha         1 65C       0.127000
     35 H4           5.9200     1.8130     0.3580 ha         1 65C       0.126000
     36 H5          -2.9370     0.5540     2.4800 ha         1 65C       0.121000
     37 H6          -5.0370     2.7390    -1.4180 ha         1 65C       0.145000
     38 H7          -4.7530     2.1790     2.8280 ha         1 65C       0.133000
     39 H8          -1.0240    -3.5030     0.0490 h4         1 65C       0.021100
     40 H9          -3.0960    -3.8350     1.5200 hn         1 65C       0.351000
     41 H11         -6.9090    -2.4980    -1.7150 hc         1 65C       0.044367
     42 H12         -7.5700    -3.1240    -0.2080 hc         1 65C       0.044367
     43 H13         -7.2560    -1.3980    -0.3900 hc         1 65C       0.044367
     44 H14          1.6700     0.9320    -0.1750 hn         1 65C       0.510000
     45 H15          2.8160    -1.6970     0.4370 h1         1 65C       0.063200
     46 H16          2.8920    -1.2380    -1.2620 h1         1 65C       0.063200
     47 H17          4.0410     0.8890    -0.6260 h1         1 65C       0.050700
     48 H18          3.9710     0.4160     1.0720 h1         1 65C       0.050700
     49 H19          5.1630    -1.7460    -0.2520 hn         1 65C       0.511000
     50 CL1         -6.2760     3.6950     0.9530 cl         1 65C      -0.195000
@<TRIPOS>BOND
     1     1    22 1   
     2     1    24 2   
     3     1    32 1   
     4     2     3 1   
     5     2    22 1   
     6     2    23 2   
     7     3     4 ar  
     8     3    21 ar  
     9     4    19 1   
    10     4    20 ar  
    11     5     6 ar  
    12     5    20 ar  
    13     5    26 1   
    14     6    21 ar  
    15     7    11 ar  
    16     7    29 1   
    17     7    30 ar  
    18     8     9 ar  
    19     8    30 ar  
    20     8    33 1   
    21     9    10 ar  
    22     9    12 1   
    23    10    11 ar  
    24    10    34 1   
    25    11    35 1   
    26    12    31 3   
    27    13    18 ar  
    28    13    19 ar  
    29    13    36 1   
    30    14    15 ar  
    31    14    18 ar  
    32    14    50 1   
    33    15    16 ar  
    34    15    37 1   
    35    16    17 1   
    36    16    19 ar  
    37    18    38 1   
    38    21    39 1   
    39    22    40 1   
    40    23    24 1   
    41    24    25 1   
    42    25    41 1   
    43    25    42 1   
    44    25    43 1   
    45    26    27 1   
    46    26    44 1   
    47    27    28 1   
    48    27    45 1   
    49    27    46 1   
    50    28    29 1   
    51    28    47 1   
    52    28    48 1   
    53    29    49 1   
@<TRIPOS>SUBSTRUCTURE
     1 65C         1 TEMP              0 ****  ****    0 ROOT
