@<TRIPOS>MOLECULE
65C
   50    53     1     0     0
SMALL
No Charge or Current Charge


@<TRIPOS>ATOM
      1 C2          -5.1170    -3.8390     0.4620 cc         1 65C      -0.226000
      2 C3          -3.5210    -2.2970     0.2580 cc         1 65C       0.469000
      3 C4          -2.1960    -1.6800     0.2840 ca         1 65C      -0.276500
      4 C5          -1.9540    -0.2770     0.2380 cp         1 65C       0.257500
      5 C6           0.3080    -0.6800     0.2080 ca         1 65C       0.390900
      6 N7           0.1940    -2.0170     0.2330 nb         1 65C      -0.242000
      7 C9           6.6450    -0.1430     0.0680 ca         1 65C       0.645900
      8 C10          8.8390    -0.6880    -0.2760 ca         1 65C       0.439900
      9 C11          9.2500     0.6400    -0.0730 ca         1 65C      -0.153000
     10 C12          8.2830     1.6160     0.2190 ca         1 65C       0.012000
     11 C13          6.9430     1.2050     0.2910 ca         1 65C      -0.249000
     12 C14         10.6370     0.9770    -0.1630 cg         1 65C       0.340000
     13 C21         -3.7810     0.8980     1.5130 ca         1 65C      -0.070000
     14 C19         -5.0790     2.6940     0.5150 ca         1 65C       0.135000
     15 C18         -4.3460     2.5650    -0.6750 ca         1 65C      -0.101000
     16 C17         -3.3280     1.6030    -0.7750 ca         1 65C       0.176000
     17 Cl          -2.4610     1.4670    -2.3050 cl         1 65C      -0.178000
     18 C20         -4.7980     1.8620     1.6090 ca         1 65C      -0.108000
     19 C16         -3.0280     0.7530     0.3200 cp         1 65C      -0.133500
     20 N2          -0.6960     0.2050     0.2090 nb         1 65C      -0.233000
     21 C15         -1.0570    -2.5110     0.2660 ca         1 65C       0.157900
     22 N           -3.7710    -3.5930     0.6430 na         1 65C      -0.296500
     23 N1          -4.6310    -1.7280    -0.1750 nd         1 65C      -0.658000
     24 C1          -5.6240    -2.6710    -0.0420 cd         1 65C       0.252300
     25 C           -7.0450    -2.3760    -0.4280 c3         1 65C      -0.109400
     26 N3           1.5840    -0.1380     0.1750 nu         1 65C      -0.921100
     27 C7           2.8720    -0.8780     0.1630 c3         1 65C       0.221800
     28 C8           4.1090     0.0670     0.1240 c3         1 65C       0.215800
     29 N4           5.3910    -0.6690     0.1140 nu         1 65C      -0.933100
     30 N5           7.5450    -1.0810    -0.2070 nb         1 65C      -0.761000
     31 N6          11.7660     1.2630    -0.2350 n1         1 65C      -0.463000
     32 H1          -5.5970    -4.7830     0.6930 h4         1 65C       0.158000
     33 H2           9.5660    -1.4690    -0.5030 h4         1 65C       0.028100
     34 H3           8.5580     2.6570     0.3860 ha         1 65C       0.127000
     35 H4           6.1590     1.9200     0.5160 ha         1 65C       0.126000
     36 H5          -3.5710     0.2550     2.3650 ha         1 65C       0.121000
     37 H6          -4.5700     3.2080    -1.5210 ha         1 65C       0.145000
     38 H7          -5.3690     1.9620     2.5280 ha         1 65C       0.133000
     39 H8          -1.1370    -3.5970     0.2670 h4         1 65C       0.021100
     40 H9          -3.0780    -4.2350     1.0050 hn         1 65C       0.351000
     41 H11         -7.1270    -2.1920    -1.5060 hc         1 65C       0.044367
     42 H12         -7.7030    -3.2160    -0.1790 hc         1 65C       0.044367
     43 H13         -7.4180    -1.4900     0.0970 hc         1 65C       0.044367
     44 H14          1.6180     0.8830     0.1540 hn         1 65C       0.510000
     45 H15          2.9440    -1.5100     1.0590 h1         1 65C       0.063200
     46 H16          2.9090    -1.5400    -0.7130 h1         1 65C       0.063200
     47 H17          4.0410     0.6990    -0.7720 h1         1 65C       0.050700
     48 H18          4.0710     0.7270     1.0010 h1         1 65C       0.050700
     49 H19          5.3900    -1.6560    -0.1370 hn         1 65C       0.511000
     50 Cl1         -6.3550     3.8990     0.6330 cl         1 65C      -0.195000
@<TRIPOS>BOND
     1     1    22 1   
     2     1    24 2   
     3     1    32 1   
     4     2     3 1   
     5     2    22 1   
     6     2    23 2   
     7     3     4 ar  
     8     3    21 ar  
     9     4    19 1   
    10     4    20 ar  
    11     5     6 ar  
    12     5    20 ar  
    13     5    26 1   
    14     6    21 ar  
    15     7    11 ar  
    16     7    29 1   
    17     7    30 ar  
    18     8     9 ar  
    19     8    30 ar  
    20     8    33 1   
    21     9    10 ar  
    22     9    12 1   
    23    10    11 ar  
    24    10    34 1   
    25    11    35 1   
    26    12    31 3   
    27    13    18 ar  
    28    13    19 ar  
    29    13    36 1   
    30    14    15 ar  
    31    14    18 ar  
    32    14    50 1   
    33    15    16 ar  
    34    15    37 1   
    35    16    17 1   
    36    16    19 ar  
    37    18    38 1   
    38    21    39 1   
    39    22    40 1   
    40    23    24 1   
    41    24    25 1   
    42    25    41 1   
    43    25    42 1   
    44    25    43 1   
    45    26    27 1   
    46    26    44 1   
    47    27    28 1   
    48    27    45 1   
    49    27    46 1   
    50    28    29 1   
    51    28    47 1   
    52    28    48 1   
    53    29    49 1   
@<TRIPOS>SUBSTRUCTURE
     1 65C         1 TEMP              0 ****  ****    0 ROOT
