@<TRIPOS>MOLECULE
65D
   42    42     1     0     0
SMALL
No Charge or Current Charge


@<TRIPOS>ATOM
      1 O3           6.2940    -1.4940     0.3040 oh         1 65D      -0.568100
      2 C4          -4.6390    -0.2470     0.0160 c3         1 65D      -0.073400
      3 C5          -3.5460     0.8430    -0.0230 c3         1 65D      -0.074400
      4 C6          -2.1140     0.2650     0.0290 c3         1 65D      -0.084400
      5 C7          -1.0240     1.3530    -0.0100 c3         1 65D       0.169600
      6 C8           1.3850     1.4610     0.0210 c          1 65D       0.607700
      7 C9           2.6700     0.6600     0.0820 ca         1 65D      -0.070600
      8 C10          3.9170     1.3240     0.0670 ca         1 65D      -0.126000
      9 C11          5.1130     0.5940     0.1270 ca         1 65D       0.153100
     10 C12          5.0990    -0.8100     0.2050 ca         1 65D      -0.083900
     11 C13          3.8580    -1.4830     0.1970 ca         1 65D       0.153100
     12 C14          2.6580    -0.7540     0.1460 ca         1 65D      -0.126000
     13 O1           1.3650     2.6850    -0.0410 o          1 65D      -0.487000
     14 O2           3.8070    -2.8470     0.2090 oh         1 65D      -0.522600
     15 O            0.2500     0.6890     0.0430 os         1 65D      -0.442100
     16 C3          -6.0710     0.3320    -0.0360 c3         1 65D      -0.075400
     17 C2          -7.1650    -0.7580     0.0040 c3         1 65D      -0.075400
     18 C1          -8.5960    -0.1800    -0.0480 c3         1 65D      -0.074400
     19 C           -9.6870    -1.2660    -0.0090 c3         1 65D      -0.088100
     20 H1           6.2070    -2.2220     0.9620 ho         1 65D       0.458000
     21 H2          -4.4970    -0.9310    -0.8300 hc         1 65D       0.039700
     22 H3          -4.5240    -0.8410     0.9320 hc         1 65D       0.039700
     23 H4          -3.6610     1.4370    -0.9380 hc         1 65D       0.040700
     24 H5          -3.6880     1.5270     0.8230 hc         1 65D       0.040700
     25 H6           6.9870     0.5230     0.1630 ho         1 65D       0.477500
     26 H7          -1.9950    -0.3270     0.9450 hc         1 65D       0.054200
     27 H8          -1.9680    -0.4170    -0.8180 hc         1 65D       0.054200
     28 H9          -1.1210     1.9380    -0.9350 h1         1 65D       0.050700
     29 H10         -1.1480     2.0290     0.8460 h1         1 65D       0.050700
     30 H11          3.9620     2.4090     0.0130 ha         1 65D       0.154500
     31 H12          1.7180    -1.3010     0.1440 ha         1 65D       0.154500
     32 H13          4.6390    -3.1840    -0.1870 ho         1 65D       0.477500
     33 H14         -6.2130     1.0160     0.8100 hc         1 65D       0.037700
     34 H15         -7.0220    -1.4420    -0.8420 hc         1 65D       0.037700
     35 H16         -8.7430     0.5040     0.7980 hc         1 65D       0.036700
     36 H17         -8.7160     0.4130    -0.9630 hc         1 65D       0.036700
     37 H18         -9.5890    -1.9470    -0.8640 hc         1 65D       0.031367
     38 H19         -9.6160    -1.8550     0.9130 hc         1 65D       0.031367
     39 H20        -10.6830    -0.8090    -0.0480 hc         1 65D       0.031367
     40 H21         -6.1860     0.9250    -0.9510 hc         1 65D       0.037700
     41 H22         -7.0490    -1.3520     0.9190 hc         1 65D       0.037700
     42 O4           6.3120     1.2370     0.1220 oh         1 65D      -0.522600
@<TRIPOS>BOND
     1     1    10 1   
     2     1    20 1   
     3     2     3 1   
     4     2    16 1   
     5     2    21 1   
     6     2    22 1   
     7     3     4 1   
     8     3    23 1   
     9     3    24 1   
    10     4     5 1   
    11     4    26 1   
    12     4    27 1   
    13     5    15 1   
    14     5    28 1   
    15     5    29 1   
    16     6     7 1   
    17     6    13 2   
    18     6    15 1   
    19     7     8 ar  
    20     7    12 ar  
    21     8     9 ar  
    22     8    30 1   
    23     9    10 ar  
    24     9    42 1   
    25    10    11 ar  
    26    11    12 ar  
    27    11    14 1   
    28    12    31 1   
    29    14    32 1   
    30    16    17 1   
    31    16    33 1   
    32    16    40 1   
    33    17    18 1   
    34    17    34 1   
    35    17    41 1   
    36    18    19 1   
    37    18    35 1   
    38    18    36 1   
    39    19    37 1   
    40    19    38 1   
    41    19    39 1   
    42    25    42 1   
@<TRIPOS>SUBSTRUCTURE
     1 65D         1 TEMP              0 ****  ****    0 ROOT
