@<TRIPOS>MOLECULE
65D
   42    42     1     0     0
SMALL
bcc


@<TRIPOS>ATOM
      1 O3           6.1650    -1.4780     0.0910 oh         1 65D      -0.529100
      2 C4          -4.6040    -0.2870     0.0460 c3         1 65D      -0.073400
      3 C5          -3.4980     0.7600     0.0180 c3         1 65D      -0.074400
      4 C6          -2.1020     0.1510     0.0940 c3         1 65D      -0.084400
      5 C7          -1.0420     1.2290     0.0700 c3         1 65D       0.146400
      6 C8           1.3180     1.3580     0.0940 c          1 65D       0.656700
      7 C9           2.5830     0.5770     0.1190 ca         1 65D      -0.070600
      8 C10          3.7760     1.2860     0.0900 ca         1 65D      -0.144000
      9 C11          4.9820     0.5990     0.0940 ca         1 65D       0.153100
     10 C12          4.9810    -0.7930     0.1330 ca         1 65D      -0.083900
     11 C13          3.7790    -1.4970     0.1350 ca         1 65D       0.153100
     12 C14          2.5720    -0.8150     0.1370 ca         1 65D      -0.144000
     13 O1           1.2810     2.5670     0.0460 o          1 65D      -0.536000
     14 O2           3.7740    -2.8450     0.1240 oh         1 65D      -0.483600
     15 O            0.2450     0.5950     0.1230 os         1 65D      -0.418900
     16 C3          -5.9970     0.3230    -0.0430 c3         1 65D      -0.075400
     17 C2          -7.1140    -0.7120    -0.0080 c3         1 65D      -0.075400
     18 C1          -8.5050    -0.0980    -0.1050 c3         1 65D      -0.074400
     19 C           -9.6150    -1.1380    -0.0660 c3         1 65D      -0.088100
     20 H1           6.4870    -1.6640     0.9810 ho         1 65D       0.419000
     21 H2          -4.4610    -0.9900    -0.7800 hc         1 65D       0.039700
     22 H3          -4.5230    -0.8780     0.9650 hc         1 65D       0.039700
     23 H4          -3.5870     1.3560    -0.8960 hc         1 65D       0.040700
     24 H5          -3.6390     1.4570     0.8500 hc         1 65D       0.040700
     25 H6           6.8680     0.6730    -0.0510 ho         1 65D       0.438500
     26 H7          -2.0060    -0.4410     1.0080 hc         1 65D       0.054200
     27 H8          -1.9520    -0.5310    -0.7470 hc         1 65D       0.054200
     28 H9          -1.1160     1.8260    -0.8420 h1         1 65D       0.050700
     29 H10         -1.1530     1.9030     0.9220 h1         1 65D       0.050700
     30 H11          3.7830     2.3670     0.0610 ha         1 65D       0.172500
     31 H12          1.6460    -1.3730     0.1420 ha         1 65D       0.172500
     32 H13          4.6790    -3.1640     0.0200 ho         1 65D       0.438500
     33 H14         -6.1350     1.0340     0.7780 hc         1 65D       0.037700
     34 H15         -6.9740    -1.4250    -0.8270 hc         1 65D       0.037700
     35 H16         -8.6430     0.6170     0.7110 hc         1 65D       0.036700
     36 H17         -8.5790     0.4840    -1.0290 hc         1 65D       0.036700
     37 H18         -9.5230    -1.8440    -0.8930 hc         1 65D       0.031367
     38 H19         -9.5860    -1.7130     0.8610 hc         1 65D       0.031367
     39 H20        -10.6010    -0.6770    -0.1350 hc         1 65D       0.031367
     40 H21         -6.0750     0.9090    -0.9650 hc         1 65D       0.037700
     41 H22         -7.0390    -1.2980     0.9150 hc         1 65D       0.037700
     42 O4           6.1310     1.2870     0.0530 oh         1 65D      -0.483600
@<TRIPOS>BOND
     1     1    10 1   
     2     1    20 1   
     3     2     3 1   
     4     2    16 1   
     5     2    21 1   
     6     2    22 1   
     7     3     4 1   
     8     3    23 1   
     9     3    24 1   
    10     4     5 1   
    11     4    26 1   
    12     4    27 1   
    13     5    15 1   
    14     5    28 1   
    15     5    29 1   
    16     6     7 1   
    17     6    13 2   
    18     6    15 1   
    19     7     8 ar  
    20     7    12 ar  
    21     8     9 ar  
    22     8    30 1   
    23     9    10 ar  
    24     9    42 1   
    25    10    11 ar  
    26    11    12 ar  
    27    11    14 1   
    28    12    31 1   
    29    14    32 1   
    30    16    17 1   
    31    16    33 1   
    32    16    40 1   
    33    17    18 1   
    34    17    34 1   
    35    17    41 1   
    36    18    19 1   
    37    18    35 1   
    38    18    36 1   
    39    19    37 1   
    40    19    38 1   
    41    19    39 1   
    42    25    42 1   
@<TRIPOS>SUBSTRUCTURE
     1 65D         1 TEMP              0 ****  ****    0 ROOT
