@<TRIPOS>MOLECULE
65H
   39    41     1     0     0
SMALL
abcg2


@<TRIPOS>ATOM
      1 C4           2.1350    -0.3830     0.7900 ca         1 65H       0.208500
      2 C5           2.4440     0.4270    -0.3090 ca         1 65H      -0.315800
      3 C6           3.6500     0.1020    -0.9690 ca         1 65H       0.473900
      4 N1           4.3910    -0.9100    -0.5310 nb         1 65H      -0.360000
      5 N3           2.8650    -1.4010     1.2450 nb         1 65H      -0.308000
      6 CAR          1.4000     1.3900    -0.4520 cc         1 65H      -0.013400
      7 NAE          4.1030     0.7910    -2.0260 nv         1 65H      -1.075900
      8 C2           3.9710    -1.6030     0.5400 ca         1 65H       0.427900
      9 NAD          4.7570    -2.6490     0.9070 nv         1 65H      -1.046900
     10 NAV          0.9690     0.0470     1.3190 na         1 65H      -0.166400
     11 CAC          0.2980    -0.5250     2.4600 c3         1 65H       0.060900
     12 CAS          0.5170     1.1260     0.5610 cd         1 65H      -0.038500
     13 SAM         -0.9340     1.9860     0.9650 ss         1 65H      -0.044600
     14 CAP         -2.2150     0.8850     0.4030 ca         1 65H      -0.159000
     15 CAH         -3.4500     0.9380     1.0440 ca         1 65H      -0.055500
     16 CAF         -4.4960     0.1420     0.6170 ca         1 65H      -0.169000
     17 CAO         -4.3220    -0.7420    -0.4510 ca         1 65H       0.144100
     18 OAL         -5.3890    -1.4880    -0.7900 os         1 65H      -0.340100
     19 CAA         -5.2620    -2.3970    -1.8650 c3         1 65H       0.147900
     20 CAG         -3.0830    -0.8030    -1.0850 ca         1 65H      -0.169000
     21 CAI         -2.0430     0.0160    -0.6630 ca         1 65H      -0.055500
     22 H1           2.1240     3.1500    -1.4440 hc         1 65H       0.046367
     23 H2           1.2640     2.0270    -2.4940 hc         1 65H       0.046367
     24 H3           0.3710     3.0300    -1.3610 hc         1 65H       0.046367
     25 H4           3.5430     1.4880    -2.4820 hn         1 65H       0.496000
     26 H5           4.9150     0.4580    -2.5180 hn         1 65H       0.496000
     27 H6           5.7040    -2.6510     0.5710 hn         1 65H       0.482000
     28 H7           4.6250    -3.0200     1.8320 hn         1 65H       0.482000
     29 H8           0.1360     0.2260     3.2320 h1         1 65H       0.059033
     30 H9          -0.6650    -0.9510     2.1780 h1         1 65H       0.059033
     31 H10          0.9230    -1.3160     2.8640 h1         1 65H       0.059033
     32 H11         -3.6000     1.6010     1.8880 ha         1 65H       0.124500
     33 H12         -5.4540     0.1910     1.1200 ha         1 65H       0.123000
     34 H13         -6.2260    -2.8900    -1.9700 h1         1 65H       0.041367
     35 H14         -5.0230    -1.8900    -2.8040 h1         1 65H       0.041367
     36 H15         -4.4990    -3.1560    -1.6710 h1         1 65H       0.041367
     37 H16         -2.9080    -1.4760    -1.9130 ha         1 65H       0.123000
     38 H17         -1.0900    -0.0390    -1.1750 ha         1 65H       0.124500
     39 CAB          1.2850     2.4530    -1.4890 c3         1 65H      -0.036900
@<TRIPOS>BOND
     1     1     2 ar  
     2     1     5 ar  
     3     1    10 1   
     4     2     3 ar  
     5     2     6 1   
     6     3     4 ar  
     7     3     7 1   
     8     4     8 ar  
     9     5     8 ar  
    10     6    12 2   
    11     6    39 1   
    12     7    25 1   
    13     7    26 1   
    14     8     9 1   
    15     9    27 1   
    16     9    28 1   
    17    10    11 1   
    18    10    12 1   
    19    11    29 1   
    20    11    30 1   
    21    11    31 1   
    22    12    13 1   
    23    13    14 1   
    24    14    15 ar  
    25    14    21 ar  
    26    15    16 ar  
    27    15    32 1   
    28    16    17 ar  
    29    16    33 1   
    30    17    18 1   
    31    17    20 ar  
    32    18    19 1   
    33    19    34 1   
    34    19    35 1   
    35    19    36 1   
    36    20    21 ar  
    37    20    37 1   
    38    21    38 1   
    39    22    39 1   
    40    23    39 1   
    41    24    39 1   
@<TRIPOS>SUBSTRUCTURE
     1 65H         1 TEMP              0 ****  ****    0 ROOT
