@<TRIPOS>MOLECULE
65H
   39    41     1     0     0
SMALL
No Charge or Current Charge


@<TRIPOS>ATOM
      1 C4           1.8540    -0.3250     0.8720 ca         1 65H       0.208500
      2 C5           2.2400     0.3910    -0.2470 ca         1 65H      -0.315800
      3 C6           3.3460    -0.0530    -0.9780 ca         1 65H       0.473900
      4 N1           4.0250    -1.1450    -0.6140 nb         1 65H      -0.360000
      5 N3           2.5260    -1.4280     1.2540 nb         1 65H      -0.308000
      6 CAR          1.3480     1.5180    -0.4310 cc         1 65H      -0.013400
      7 NAE          3.8040     0.5630    -2.0900 nv         1 65H      -1.075900
      8 C2           3.5710    -1.7660     0.4830 ca         1 65H       0.427900
      9 NAD          4.2550    -2.8680     0.8570 nv         1 65H      -1.046900
     10 NAV          0.7440     0.2860     1.4380 na         1 65H      -0.166400
     11 CAC          0.0230    -0.2280     2.6130 c3         1 65H       0.060900
     12 CAS          0.4710     1.4060     0.6350 cd         1 65H      -0.038500
     13 SAM         -0.9430     2.4460     0.8810 ss         1 65H      -0.044600
     14 CAP         -2.0710     1.1440     0.3870 ca         1 65H      -0.159000
     15 CAH         -3.0530     0.7010     1.2900 ca         1 65H      -0.055500
     16 CAF         -3.9390    -0.3240     0.9190 ca         1 65H      -0.169000
     17 CAO         -3.8570    -0.9090    -0.3550 ca         1 65H       0.144100
     18 OAL         -4.7540    -1.9130    -0.6620 os         1 65H      -0.340100
     19 CAA         -4.7530    -2.5780    -1.9380 c3         1 65H       0.147900
     20 CAG         -2.8780    -0.4580    -1.2670 ca         1 65H      -0.169000
     21 CAI         -1.9910     0.5680    -0.8950 ca         1 65H      -0.055500
     22 H1           2.3310     3.0540    -1.5840 hc         1 65H       0.046367
     23 H2           1.1640     2.0780    -2.5060 hc         1 65H       0.046367
     24 H3           0.5970     3.3160    -1.3780 hc         1 65H       0.046367
     25 H4           3.1850     1.2150    -2.5570 hn         1 65H       0.496000
     26 H5           4.4550     0.0510    -2.6800 hn         1 65H       0.496000
     27 H6           5.1710    -3.0220     0.4470 hn         1 65H       0.482000
     28 H7           4.1020    -3.2360     1.7930 hn         1 65H       0.482000
     29 H8          -0.4690     0.5990     3.1400 h1         1 65H       0.059033
     30 H9          -0.7350    -0.9520     2.2880 h1         1 65H       0.059033
     31 H10          0.7240    -0.7200     3.2980 h1         1 65H       0.059033
     32 H11         -3.1240     1.1470     2.2800 ha         1 65H       0.124500
     33 H12         -4.6940    -0.6680     1.6210 ha         1 65H       0.123000
     34 H13         -5.5430    -3.3390    -1.9710 h1         1 65H       0.041367
     35 H14         -4.9370    -1.8630    -2.7510 h1         1 65H       0.041367
     36 H15         -3.7920    -3.0770    -2.1170 h1         1 65H       0.041367
     37 H16         -2.7900    -0.8860    -2.2610 ha         1 65H       0.123000
     38 H17         -1.2420     0.9120    -1.6050 ha         1 65H       0.124500
     39 CAB          1.3610     2.5460    -1.5340 c3         1 65H      -0.036900
@<TRIPOS>BOND
     1     1     2 ar  
     2     1     5 ar  
     3     1    10 1   
     4     2     3 ar  
     5     2     6 1   
     6     3     4 ar  
     7     3     7 1   
     8     4     8 ar  
     9     5     8 ar  
    10     6    12 2   
    11     6    39 1   
    12     7    25 1   
    13     7    26 1   
    14     8     9 1   
    15     9    27 1   
    16     9    28 1   
    17    10    11 1   
    18    10    12 1   
    19    11    29 1   
    20    11    30 1   
    21    11    31 1   
    22    12    13 1   
    23    13    14 1   
    24    14    15 ar  
    25    14    21 ar  
    26    15    16 ar  
    27    15    32 1   
    28    16    17 ar  
    29    16    33 1   
    30    17    18 1   
    31    17    20 ar  
    32    18    19 1   
    33    19    34 1   
    34    19    35 1   
    35    19    36 1   
    36    20    21 ar  
    37    20    37 1   
    38    21    38 1   
    39    22    39 1   
    40    23    39 1   
    41    24    39 1   
@<TRIPOS>SUBSTRUCTURE
     1 65H         1 TEMP              0 ****  ****    0 ROOT
