@<TRIPOS>MOLECULE
65I
   75    74     1     0     0
SMALL
bcc


@<TRIPOS>ATOM
      1 N          123.3880   161.9270   103.4920 n8         1 65I      -0.887800
      2 C          120.5000   151.5340   111.7490 c3         1 65I      -0.090100
      3 O          122.1400   157.5300   109.9200 o          1 65I      -0.558000
      4 C1         121.0880   152.8660   111.3070 c3         1 65I      -0.081400
      5 C10        123.1680   160.7050   102.7330 c3         1 65I       0.105800
      6 C11        124.8040   157.0790   108.4890 c          1 65I       0.659100
      7 C12        125.2370   156.1440   109.5890 c3         1 65I      -0.136400
      8 C13        124.9670   154.6590   109.3870 c3         1 65I      -0.067400
      9 C14        125.3450   153.8330   110.6110 c3         1 65I      -0.078400
     10 C15        125.2000   152.3370   110.3580 c3         1 65I      -0.074400
     11 C16        125.5650   151.4570   111.5500 c3         1 65I      -0.072400
     12 C17        124.6060   151.5780   112.7280 c3         1 65I      -0.079400
     13 C18        124.9490   150.6280   113.8700 c3         1 65I      -0.073400
     14 C19        124.1200   150.8450   115.1330 c3         1 65I      -0.072400
     15 C2         120.1760   154.0480   111.6150 c3         1 65I      -0.074400
     16 C20        122.6200   150.6490   114.9430 c3         1 65I      -0.078400
     17 C21        121.8400   150.7910   116.2430 c3         1 65I      -0.089100
     18 C3         120.7490   155.3950   111.1860 c3         1 65I      -0.066400
     19 C4         120.7630   155.5730   109.6740 c3         1 65I      -0.145400
     20 C5         121.4680   156.8190   109.2170 c          1 65I       0.648100
     21 C6         122.1020   157.9810   107.2410 c3         1 65I       0.118400
     22 C7         123.2950   157.2640   106.6300 c3         1 65I       0.099100
     23 C8         122.9100   156.2410   105.5640 c3         1 65I       0.221400
     24 C9         122.2510   159.7820   103.5180 c3         1 65I       0.209400
     25 O2         122.1410   156.8550   104.5600 os         1 65I      -0.583200
     26 O3         124.2600   157.5060   103.2730 o          1 65I      -0.814500
     27 O4         122.3080   156.2350   102.0790 o          1 65I      -0.814500
     28 O5         121.9600   158.5970   102.7960 os         1 65I      -0.561200
     29 O6         123.9610   156.5000   107.6380 os         1 65I      -0.437900
     30 O7         125.1600   158.2260   108.3970 o          1 65I      -0.538000
     31 P          122.7990   157.2240   103.0840 p5         1 65I       1.388800
     32 H1         124.0970   162.4860   103.0360 hn         1 65I       0.321800
     33 H2         122.5470   162.4890   103.4800 hn         1 65I       0.321800
     34 H4         121.1910   150.7110   111.5650 hc         1 65I       0.029367
     35 H5         120.2710   151.5390   112.8170 hc         1 65I       0.029367
     36 H6         119.5730   151.3140   111.2160 hc         1 65I       0.029367
     37 H7         121.3090   152.8210   110.2370 hc         1 65I       0.041700
     38 H8         122.0490   153.0270   111.8050 hc         1 65I       0.041700
     39 H9         122.7440   160.8710   101.7330 h1         1 65I       0.046200
     40 H10        124.1280   160.2040   102.5910 h1         1 65I       0.046200
     41 H11        126.3020   156.3190   109.7660 hc         1 65I       0.067700
     42 H12        124.7310   156.4930   110.4960 hc         1 65I       0.067700
     43 H13        123.9100   154.4920   109.1670 hc         1 65I       0.052200
     44 H14        125.5250   154.2980   108.5180 hc         1 65I       0.052200
     45 H15        126.3770   154.0500   110.9080 hc         1 65I       0.034700
     46 H16        124.7150   154.1390   111.4530 hc         1 65I       0.034700
     47 H17        125.8330   152.0660   109.5070 hc         1 65I       0.040700
     48 H18        124.1710   152.1190   110.0490 hc         1 65I       0.040700
     49 H19        125.5910   150.4130   111.2240 hc         1 65I       0.034200
     50 H20        126.5820   151.6940   111.8820 hc         1 65I       0.034200
     51 H21        124.5990   152.6050   113.1080 hc         1 65I       0.041200
     52 H22        123.5900   151.3800   112.3710 hc         1 65I       0.041200
     53 H23        124.8300   149.5940   113.5280 hc         1 65I       0.034200
     54 H24        126.0080   150.7420   114.1210 hc         1 65I       0.034200
     55 H25        124.4710   150.1590   115.9110 hc         1 65I       0.034700
     56 H26        124.3050   151.8550   115.5150 hc         1 65I       0.034700
     57 H27        119.9910   154.0720   112.6920 hc         1 65I       0.035700
     58 H28        119.1980   153.8940   111.1450 hc         1 65I       0.035700
     59 H29        122.2400   151.3730   114.2180 hc         1 65I       0.040200
     60 H30        122.4350   149.6610   114.5100 hc         1 65I       0.040200
     61 H31        120.7700   150.6550   116.0840 hc         1 65I       0.029033
     62 H32        122.1610   150.0530   116.9800 hc         1 65I       0.029033
     63 H33        121.9860   151.7790   116.6830 hc         1 65I       0.029033
     64 H34        121.7640   155.4930   111.5810 hc         1 65I       0.049700
     65 H35        120.1650   156.2010   111.6350 hc         1 65I       0.049700
     66 H36        119.7450   155.5640   109.2750 hc         1 65I       0.073200
     67 H37        121.2750   154.7360   109.1880 hc         1 65I       0.073200
     68 H38        122.4190   158.7810   107.9100 h1         1 65I       0.079700
     69 H39        121.4970   158.4260   106.4530 h1         1 65I       0.079700
     70 H40        123.9640   158.0100   106.1910 h1         1 65I       0.098700
     71 H41        122.3150   155.4400   106.0100 h1         1 65I       0.036700
     72 H42        123.8260   155.7870   105.1730 h1         1 65I       0.036700
     73 H43        122.7040   159.5770   104.4940 h1         1 65I       0.018200
     74 H44        121.2990   160.2850   103.7140 h1         1 65I       0.018200
     75 O1         121.2740   157.0340   107.9140 os         1 65I      -0.410900
@<TRIPOS>BOND
     1     1     5 1   
     2     1    32 1   
     3     1    33 1   
     4     2     4 1   
     5     2    34 1   
     6     2    35 1   
     7     2    36 1   
     8     3    20 2   
     9     4    15 1   
    10     4    37 1   
    11     4    38 1   
    12     5    24 1   
    13     5    39 1   
    14     5    40 1   
    15     6     7 1   
    16     6    29 1   
    17     6    30 2   
    18     7     8 1   
    19     7    41 1   
    20     7    42 1   
    21     8     9 1   
    22     8    43 1   
    23     8    44 1   
    24     9    10 1   
    25     9    45 1   
    26     9    46 1   
    27    10    11 1   
    28    10    47 1   
    29    10    48 1   
    30    11    12 1   
    31    11    49 1   
    32    11    50 1   
    33    12    13 1   
    34    12    51 1   
    35    12    52 1   
    36    13    14 1   
    37    13    53 1   
    38    13    54 1   
    39    14    16 1   
    40    14    55 1   
    41    14    56 1   
    42    15    18 1   
    43    15    57 1   
    44    15    58 1   
    45    16    17 1   
    46    16    59 1   
    47    16    60 1   
    48    17    61 1   
    49    17    62 1   
    50    17    63 1   
    51    18    19 1   
    52    18    64 1   
    53    18    65 1   
    54    19    20 1   
    55    19    66 1   
    56    19    67 1   
    57    20    75 1   
    58    21    22 1   
    59    21    68 1   
    60    21    69 1   
    61    21    75 1   
    62    22    23 1   
    63    22    29 1   
    64    22    70 1   
    65    23    25 1   
    66    23    71 1   
    67    23    72 1   
    68    24    28 1   
    69    24    73 1   
    70    24    74 1   
    71    25    31 1   
    72    26    31 1   
    73    27    31 1   
    74    28    31 1   
@<TRIPOS>SUBSTRUCTURE
     1 65I         1 TEMP              0 ****  ****    0 ROOT
