@<TRIPOS>MOLECULE
65I
   75    74     1     0     0
SMALL
No Charge or Current Charge


@<TRIPOS>ATOM
      1 N          123.6920   161.8820   102.5890 n8         1 65I      -0.998200
      2 C          120.0850   151.1170   111.3210 c3         1 65I      -0.090100
      3 O          121.4690   157.8230   110.1640 o          1 65I      -0.509000
      4 C1         120.3120   152.4140   110.5200 c3         1 65I      -0.081400
      5 C10        123.0850   160.5320   102.7570 c3         1 65I       0.105800
      6 C11        124.9520   156.8090   108.1160 c          1 65I       0.610100
      7 C12        125.4570   156.2530   109.4480 c3         1 65I      -0.136400
      8 C13        125.5250   154.7070   109.4090 c3         1 65I      -0.067400
      9 C14        125.7300   154.0700   110.8010 c3         1 65I      -0.078400
     10 C15        125.8400   152.5280   110.7450 c3         1 65I      -0.074400
     11 C16        125.9730   151.8450   112.1280 c3         1 65I      -0.072400
     12 C17        124.6830   151.8960   112.9790 c3         1 65I      -0.079400
     13 C18        124.8030   151.1470   114.3250 c3         1 65I      -0.073400
     14 C19        123.5630   151.2880   115.2410 c3         1 65I      -0.072400
     15 C2         121.3690   153.3400   111.1620 c3         1 65I      -0.074400
     16 C20        122.2570   150.7080   114.6480 c3         1 65I      -0.078400
     17 C21        121.0650   150.7850   115.6210 c3         1 65I      -0.089100
     18 C3         121.6930   154.6100   110.3440 c3         1 65I      -0.066400
     19 C4         120.5090   155.5950   110.1770 c3         1 65I      -0.145400
     20 C5         120.9900   156.8930   109.5290 c          1 65I       0.599100
     21 C6         121.4750   157.8940   107.3690 c3         1 65I       0.141600
     22 C7         122.8880   157.3930   106.9420 c3         1 65I       0.122300
     23 C8         122.8230   156.1710   105.9720 c3         1 65I       0.244600
     24 C9         122.9320   160.0950   104.2490 c3         1 65I       0.232600
     25 O2         122.0970   156.4770   104.7630 os         1 65I      -0.606400
     26 O3         124.1370   157.4210   103.5640 o          1 65I      -0.814500
     27 O4         121.9860   157.3080   102.3410 o          1 65I      -0.814500
     28 O5         122.1630   158.8850   104.3470 os         1 65I      -0.584400
     29 O6         123.5970   157.0010   108.1450 os         1 65I      -0.461100
     30 O7         125.6700   157.0370   107.1530 o          1 65I      -0.489000
     31 P          122.6530   157.5130   103.6590 p5         1 65I       1.388800
     32 H1         123.7150   162.1200   101.5890 hn         1 65I       0.377000
     33 H2         123.0660   162.5890   102.9930 hn         1 65I       0.377000
     34 H4         119.3290   150.4920   110.8320 hc         1 65I       0.029367
     35 H5         121.0140   150.5380   111.3930 hc         1 65I       0.029367
     36 H6         119.7380   151.3440   112.3360 hc         1 65I       0.029367
     37 H7         119.3560   152.9450   110.4350 hc         1 65I       0.041700
     38 H8         120.6270   152.1530   109.5010 hc         1 65I       0.041700
     39 H9         122.0930   160.5370   102.2830 h1         1 65I       0.046200
     40 H10        123.7150   159.8080   102.2230 h1         1 65I       0.046200
     41 H11        126.4530   156.6540   109.6650 hc         1 65I       0.067700
     42 H12        124.7470   156.5320   110.2360 hc         1 65I       0.067700
     43 H13        124.5940   154.3160   108.9790 hc         1 65I       0.052200
     44 H14        126.3370   154.3990   108.7390 hc         1 65I       0.052200
     45 H15        126.6390   154.4800   111.2590 hc         1 65I       0.034700
     46 H16        124.8900   154.3580   111.4440 hc         1 65I       0.034700
     47 H17        126.7150   152.2620   110.1400 hc         1 65I       0.040700
     48 H18        124.9650   152.1170   110.2250 hc         1 65I       0.040700
     49 H19        126.2460   150.7940   111.9700 hc         1 65I       0.034200
     50 H20        126.8010   152.3040   112.6830 hc         1 65I       0.034200
     51 H21        124.4110   152.9400   113.1780 hc         1 65I       0.041200
     52 H22        123.8690   151.4530   112.3950 hc         1 65I       0.041200
     53 H23        124.9910   150.0830   114.1330 hc         1 65I       0.034200
     54 H24        125.6780   151.5280   114.8670 hc         1 65I       0.034200
     55 H25        123.7760   150.7820   116.1910 hc         1 65I       0.034700
     56 H26        123.4110   152.3490   115.4790 hc         1 65I       0.034700
     57 H27        122.2980   152.7740   111.2890 hc         1 65I       0.035700
     58 H28        121.0380   153.6300   112.1680 hc         1 65I       0.035700
     59 H29        121.9910   151.2540   113.7360 hc         1 65I       0.040200
     60 H30        122.4180   149.6610   114.3620 hc         1 65I       0.040200
     61 H31        120.1640   150.3690   115.1550 hc         1 65I       0.029033
     62 H32        121.2720   150.2170   116.5350 hc         1 65I       0.029033
     63 H33        120.8580   151.8260   115.8980 hc         1 65I       0.029033
     64 H34        122.0660   154.3200   109.3530 hc         1 65I       0.049700
     65 H35        122.5170   155.1340   110.8440 hc         1 65I       0.049700
     66 H36        120.0820   155.8190   111.1610 hc         1 65I       0.073200
     67 H37        119.7650   155.1220   109.5250 hc         1 65I       0.073200
     68 H38        121.5590   158.8480   107.9050 h1         1 65I       0.079700
     69 H39        120.8850   158.0900   106.4640 h1         1 65I       0.079700
     70 H40        123.4140   158.2210   106.4510 h1         1 65I       0.098700
     71 H41        122.3340   155.3360   106.4920 h1         1 65I       0.036700
     72 H42        123.8400   155.8420   105.7250 h1         1 65I       0.036700
     73 H43        123.9250   159.9600   104.6970 h1         1 65I       0.018200
     74 H44        122.4230   160.8930   104.8050 h1         1 65I       0.018200
     75 O1         120.8200   156.8760   108.1660 os         1 65I      -0.434100
@<TRIPOS>BOND
     1     1     5 1   
     2     1    32 1   
     3     1    33 1   
     4     2     4 1   
     5     2    34 1   
     6     2    35 1   
     7     2    36 1   
     8     3    20 2   
     9     4    15 1   
    10     4    37 1   
    11     4    38 1   
    12     5    24 1   
    13     5    39 1   
    14     5    40 1   
    15     6     7 1   
    16     6    29 1   
    17     6    30 2   
    18     7     8 1   
    19     7    41 1   
    20     7    42 1   
    21     8     9 1   
    22     8    43 1   
    23     8    44 1   
    24     9    10 1   
    25     9    45 1   
    26     9    46 1   
    27    10    11 1   
    28    10    47 1   
    29    10    48 1   
    30    11    12 1   
    31    11    49 1   
    32    11    50 1   
    33    12    13 1   
    34    12    51 1   
    35    12    52 1   
    36    13    14 1   
    37    13    53 1   
    38    13    54 1   
    39    14    16 1   
    40    14    55 1   
    41    14    56 1   
    42    15    18 1   
    43    15    57 1   
    44    15    58 1   
    45    16    17 1   
    46    16    59 1   
    47    16    60 1   
    48    17    61 1   
    49    17    62 1   
    50    17    63 1   
    51    18    19 1   
    52    18    64 1   
    53    18    65 1   
    54    19    20 1   
    55    19    66 1   
    56    19    67 1   
    57    20    75 1   
    58    21    22 1   
    59    21    68 1   
    60    21    69 1   
    61    21    75 1   
    62    22    23 1   
    63    22    29 1   
    64    22    70 1   
    65    23    25 1   
    66    23    71 1   
    67    23    72 1   
    68    24    28 1   
    69    24    73 1   
    70    24    74 1   
    71    25    31 1   
    72    26    31 1   
    73    27    31 1   
    74    28    31 1   
@<TRIPOS>SUBSTRUCTURE
     1 65I         1 TEMP              0 ****  ****    0 ROOT
