@<TRIPOS>MOLECULE
65J
   42    44     1     0     0
SMALL
bcc


@<TRIPOS>ATOM
      1 C4           2.3380    -0.3780    -0.0640 ca         1 65J       0.534800
      2 C5           2.4590     0.9130    -0.5930 ca         1 65J      -0.446400
      3 C6           3.6920     1.5490    -0.3310 ca         1 65J       0.796200
      4 N1           4.6230     0.9210     0.3800 nb         1 65J      -0.884000
      5 N3           3.2590    -1.0250     0.6510 nb         1 65J      -0.832000
      6 CAA          0.0540    -2.1530     1.4210 c3         1 65J      -0.113100
      7 NAW          1.1290    -0.8710    -0.4020 na         1 65J      -0.137100
      8 C2           4.3660    -0.3160     0.8350 ca         1 65J       0.953900
      9 NAD          5.3420    -0.8780     1.5920 nv         1 65J      -0.938500
     10 NAE          3.9670     2.7950    -0.7510 nv         1 65J      -0.956500
     11 CAS          1.2430     1.2190    -1.2740 cc         1 65J      -0.009400
     12 CAC          0.8900     2.4800    -1.9830 c3         1 65J      -0.038900
     13 CAT          0.4510     0.1090    -1.1310 cd         1 65J      -0.040500
     14 SAN         -1.1140    -0.1650    -1.8260 ss         1 65J      -0.166500
     15 CAQ         -2.2330     0.1400    -0.4770 ca         1 65J       0.043900
     16 CAI         -3.4630    -0.4950    -0.5310 ca         1 65J      -0.150000
     17 CAH         -1.9260     1.0080     0.5660 ca         1 65J      -0.154000
     18 CAF         -2.8710     1.2170     1.5560 ca         1 65J      -0.086000
     19 CAG         -4.1150     0.5970     1.5190 ca         1 65J      -0.216000
     20 CAO         -4.4150    -0.2620     0.4650 ca         1 65J       0.144100
     21 OAM         -5.5800    -0.9200     0.3270 os         1 65J      -0.318900
     22 CAB         -6.5710    -0.7570     1.3230 c3         1 65J       0.125700
     23 H1          -0.7700    -1.4460     1.5080 hc         1 65J       0.048033
     24 H2          -0.3210    -3.1440     1.6750 hc         1 65J       0.048033
     25 H3           0.8190    -1.8850     2.1500 hc         1 65J       0.048033
     26 H4           1.4460    -2.8770    -0.0590 h1         1 65J       0.067700
     27 H5          -0.1330    -2.4720    -0.7070 h1         1 65J       0.067700
     28 H6           5.2990    -1.8720     1.7390 hn         1 65J       0.427800
     29 H7           6.2660    -0.4880     1.5200 hn         1 65J       0.427800
     30 H8           3.3940     3.2430    -1.4440 hn         1 65J       0.435800
     31 H9           4.9100     3.1350    -0.6610 hn         1 65J       0.435800
     32 H10          1.5600     2.6730    -2.8240 hc         1 65J       0.047367
     33 H11         -0.1230     2.4350    -2.3780 hc         1 65J       0.047367
     34 H12          0.9460     3.3410    -1.3140 hc         1 65J       0.047367
     35 H13         -3.6980    -1.1830    -1.3360 ha         1 65J       0.153000
     36 H14         -0.9660     1.5040     0.6080 ha         1 65J       0.148000
     37 H15         -2.6440     1.8860     2.3760 ha         1 65J       0.131000
     38 H16         -4.8250     0.7900     2.3100 ha         1 65J       0.135000
     39 H17         -7.4070    -1.3870     1.0310 h1         1 65J       0.040700
     40 H18         -6.2160    -1.0730     2.3070 h1         1 65J       0.040700
     41 H19         -6.9170     0.2780     1.3890 h1         1 65J       0.040700
     42 CAJ          0.6250    -2.1640     0.0120 c3         1 65J       0.049300
@<TRIPOS>BOND
     1     1     2 ar  
     2     1     5 ar  
     3     1     7 1   
     4     2     3 ar  
     5     2    11 1   
     6     3     4 ar  
     7     3    10 1   
     8     4     8 ar  
     9     5     8 ar  
    10     6    23 1   
    11     6    24 1   
    12     6    25 1   
    13     6    42 1   
    14     7    13 1   
    15     7    42 1   
    16     8     9 1   
    17     9    28 1   
    18     9    29 1   
    19    10    30 1   
    20    10    31 1   
    21    11    12 1   
    22    11    13 2   
    23    12    32 1   
    24    12    33 1   
    25    12    34 1   
    26    13    14 1   
    27    14    15 1   
    28    15    16 ar  
    29    15    17 ar  
    30    16    20 ar  
    31    16    35 1   
    32    17    18 ar  
    33    17    36 1   
    34    18    19 ar  
    35    18    37 1   
    36    19    20 ar  
    37    19    38 1   
    38    20    21 1   
    39    21    22 1   
    40    22    39 1   
    41    22    40 1   
    42    22    41 1   
    43    26    42 1   
    44    27    42 1   
@<TRIPOS>SUBSTRUCTURE
     1 65J         1 TEMP              0 ****  ****    0 ROOT
