@<TRIPOS>MOLECULE
65J
   42    44     1     0     0
SMALL
No Charge or Current Charge


@<TRIPOS>ATOM
      1 C4           2.0020    -0.3850    -0.0240 ca         1 65J       0.206500
      2 C5           2.3130     0.8680    -0.5220 ca         1 65J      -0.314800
      3 C6           3.5050     1.4750    -0.1120 ca         1 65J       0.467900
      4 N1           4.3350     0.8680     0.7420 nb         1 65J      -0.358000
      5 N3           2.8290    -1.0130     0.8350 nb         1 65J      -0.306000
      6 CAA         -0.4500    -2.1350     1.1780 c3         1 65J      -0.113100
      7 NAW          0.7880    -0.7960    -0.5600 na         1 65J      -0.166400
      8 C2           3.9420    -0.3400     1.1650 ca         1 65J       0.427900
      9 NAD          4.7790    -0.9610     2.0230 nv         1 65J      -1.048900
     10 NAE          3.9130     2.6890    -0.5450 nv         1 65J      -1.066900
     11 CAS          1.2690     1.3030    -1.4250 cc         1 65J      -0.009400
     12 CAC          1.1730     2.6030    -2.1810 c3         1 65J      -0.038900
     13 CAT          0.3820     0.2370    -1.4230 cd         1 65J      -0.040500
     14 SAN         -1.1350     0.2020    -2.3410 ss         1 65J      -0.039600
     15 CAQ         -2.1300     0.4070    -0.8650 ca         1 65J      -0.083000
     16 CAI         -3.1440    -0.5280    -0.5860 ca         1 65J      -0.132000
     17 CAH         -1.9280     1.4920     0.0080 ca         1 65J      -0.136000
     18 CAF         -2.7190     1.6280     1.1610 ca         1 65J      -0.068000
     19 CAG         -3.7220     0.6840     1.4440 ca         1 65J      -0.198000
     20 CAO         -3.9380    -0.4000     0.5650 ca         1 65J       0.144100
     21 OAM         -4.9080    -1.3570     0.7890 os         1 65J      -0.342100
     22 CAB         -5.7650    -1.3230     1.9440 c3         1 65J       0.148900
     23 H1          -1.1620    -1.3180     1.3390 hc         1 65J       0.048033
     24 H2          -0.9730    -3.0840     1.3380 hc         1 65J       0.048033
     25 H3           0.3440    -2.0500     1.9280 hc         1 65J       0.048033
     26 H4           0.8710    -2.8860    -0.3680 h1         1 65J       0.067700
     27 H5          -0.6690    -2.2580    -0.9730 h1         1 65J       0.067700
     28 H6           4.6460    -1.9550     2.1860 hn         1 65J       0.483000
     29 H7           5.7250    -0.6020     2.1180 hn         1 65J       0.483000
     30 H8           3.4760     3.0650    -1.3780 hn         1 65J       0.491000
     31 H9           4.8810     2.9490    -0.3800 hn         1 65J       0.491000
     32 H10          1.9710     2.6790    -2.9290 hc         1 65J       0.047367
     33 H11          0.2170     2.6970    -2.7080 hc         1 65J       0.047367
     34 H12          1.2540     3.4580    -1.5000 hc         1 65J       0.047367
     35 H13         -3.3110    -1.3630    -1.2600 ha         1 65J       0.135000
     36 H14         -1.1590     2.2310    -0.2020 ha         1 65J       0.130000
     37 H15         -2.5550     2.4660     1.8350 ha         1 65J       0.113000
     38 H16         -4.3180     0.8120     2.3430 ha         1 65J       0.117000
     39 H17         -6.4580    -2.1730     1.9280 h1         1 65J       0.040700
     40 H18         -5.1770    -1.3820     2.8690 h1         1 65J       0.040700
     41 H19         -6.3600    -0.4000     1.9620 h1         1 65J       0.040700
     42 CAJ          0.1350    -2.0810    -0.2480 c3         1 65J       0.078600
@<TRIPOS>BOND
     1     1     2 ar  
     2     1     5 ar  
     3     1     7 1   
     4     2     3 ar  
     5     2    11 1   
     6     3     4 ar  
     7     3    10 1   
     8     4     8 ar  
     9     5     8 ar  
    10     6    23 1   
    11     6    24 1   
    12     6    25 1   
    13     6    42 1   
    14     7    13 1   
    15     7    42 1   
    16     8     9 1   
    17     9    28 1   
    18     9    29 1   
    19    10    30 1   
    20    10    31 1   
    21    11    12 1   
    22    11    13 2   
    23    12    32 1   
    24    12    33 1   
    25    12    34 1   
    26    13    14 1   
    27    14    15 1   
    28    15    16 ar  
    29    15    17 ar  
    30    16    20 ar  
    31    16    35 1   
    32    17    18 ar  
    33    17    36 1   
    34    18    19 ar  
    35    18    37 1   
    36    19    20 ar  
    37    19    38 1   
    38    20    21 1   
    39    21    22 1   
    40    22    39 1   
    41    22    40 1   
    42    22    41 1   
    43    26    42 1   
    44    27    42 1   
@<TRIPOS>SUBSTRUCTURE
     1 65J         1 TEMP              0 ****  ****    0 ROOT
