@<TRIPOS>MOLECULE
65K
   19    19     1     0     0
SMALL
No Charge or Current Charge


@<TRIPOS>ATOM
      1 C26          2.9170     0.0240     0.0600 c          1 65K       0.710600
      2 O27          3.5010     1.0920     0.1880 o          1 65K      -0.719000
      3 C28          1.3950     0.0250     0.0110 ca         1 65K      -0.113600
      4 C29          0.6650     1.2310     0.1080 ca         1 65K      -0.102000
      5 C30         -0.7400     1.2310     0.0620 ca         1 65K      -0.107500
      6 C31         -1.4660     0.0250    -0.0690 ca         1 65K      -0.189900
      7 C32         -0.7330    -1.1800    -0.1860 ca         1 65K      -0.107500
      8 C33          0.6720    -1.1800    -0.1410 ca         1 65K      -0.102000
      9 C34         -2.9660     0.0440    -0.1440 ce         1 65K       0.674800
     10 N35         -3.6480     1.0950    -0.3480 n2         1 65K      -0.847100
     11 N36         -3.6290    -1.0990     0.1270 nv         1 65K      -1.080200
     12 H291         1.1870     2.1790     0.2180 ha         1 65K       0.129000
     13 H301        -1.2640     2.1810     0.1380 ha         1 65K       0.099000
     14 H321        -1.2440    -2.1300    -0.3240 ha         1 65K       0.099000
     15 H331         1.2000    -2.1270    -0.2300 ha         1 65K       0.129000
     16 H351        -4.6190     0.8130    -0.5170 hn         1 65K       0.344400
     17 H361        -3.0630    -1.8180     0.5620 hn         1 65K       0.450500
     18 OXT          3.5060    -1.0450    -0.0300 o          1 65K      -0.719000
     19 H362        -4.5630    -0.9940     0.5040 hn         1 65K       0.450500
@<TRIPOS>BOND
     1     1     2 1   
     2     1     3 1   
     3     1    18 1   
     4     3     4 ar  
     5     3     8 ar  
     6     4     5 ar  
     7     4    12 1   
     8     5     6 ar  
     9     5    13 1   
    10     6     7 ar  
    11     6     9 1   
    12     7     8 ar  
    13     7    14 1   
    14     8    15 1   
    15     9    10 2   
    16     9    11 1   
    17    10    16 1   
    18    11    17 1   
    19    11    19 1   
@<TRIPOS>SUBSTRUCTURE
     1 65K         1 TEMP              0 ****  ****    0 ROOT
