@<TRIPOS>MOLECULE
65K
   19    19     1     0     0
SMALL
bcc


@<TRIPOS>ATOM
      1 C26          2.8840     0.0320     0.0470 c          1 65K       0.921200
      2 O27          3.4320     1.1420     0.1920 o          1 65K      -0.824300
      3 C28          1.3610     0.0250     0.0020 ca         1 65K      -0.113600
      4 C29          0.6340     1.2090     0.1160 ca         1 65K      -0.120000
      5 C30         -0.7500     1.2040     0.0720 ca         1 65K      -0.125500
      6 C31         -1.4520     0.0090    -0.0780 ca         1 65K      -0.189900
      7 C32         -0.7290    -1.1770    -0.1960 ca         1 65K      -0.125500
      8 C33          0.6570    -1.1650    -0.1570 ca         1 65K      -0.120000
      9 C34         -2.9400     0.0330    -0.1240 ce         1 65K       0.674800
     10 N35         -3.5260     1.1080    -0.4930 n2         1 65K      -0.847100
     11 N36         -3.5540    -1.1460     0.1910 nv         1 65K      -0.969800
     12 H291         1.1610     2.1450     0.2430 ha         1 65K       0.147000
     13 H301        -1.2990     2.1320     0.1630 ha         1 65K       0.117000
     14 H321        -1.2410    -2.1200    -0.3420 ha         1 65K       0.117000
     15 H331         1.2020    -2.0940    -0.2590 ha         1 65K       0.147000
     16 H351        -4.5370     1.0060    -0.4510 hn         1 65K       0.344400
     17 H361        -3.0890    -1.7770     0.8230 hn         1 65K       0.395300
     18 OXT          3.4500    -1.0720    -0.0650 o          1 65K      -0.824300
     19 H362        -4.5550    -1.1300     0.3040 hn         1 65K       0.395300
@<TRIPOS>BOND
     1     1     2 1   
     2     1     3 1   
     3     1    18 1   
     4     3     4 ar  
     5     3     8 ar  
     6     4     5 ar  
     7     4    12 1   
     8     5     6 ar  
     9     5    13 1   
    10     6     7 ar  
    11     6     9 1   
    12     7     8 ar  
    13     7    14 1   
    14     8    15 1   
    15     9    10 2   
    16     9    11 1   
    17    10    16 1   
    18    11    17 1   
    19    11    19 1   
@<TRIPOS>SUBSTRUCTURE
     1 65K         1 TEMP              0 ****  ****    0 ROOT
