@<TRIPOS>MOLECULE
65L
   55    59     1     0     0
SMALL
No Charge or Current Charge


@<TRIPOS>ATOM
      1 C4          62.5180   -35.5300    52.8090 cc         1 65L      -0.207000
      2 C5          61.2680   -35.2620    52.3360 cd         1 65L      -0.162000
      3 C8          59.4300   -36.6230    51.6720 ca         1 65L       0.021800
      4 C10         57.0560   -36.0420    51.7500 ca         1 65L      -0.112000
      5 C13         54.2480   -36.8350    50.5570 ca         1 65L       0.623900
      6 C15         52.5700   -36.8520    52.2650 ca         1 65L       0.382000
      7 C17         50.9010   -36.8440    53.8780 ca         1 65L       0.634300
      8 C20         51.8850   -35.2930    56.4250 c6         1 65L      -0.090400
      9 C21         52.8060   -35.1170    57.6530 c6         1 65L       0.160800
     10 C24         50.7930   -37.2590    57.5920 c6         1 65L      -0.090400
     11 C26         50.2580   -36.6480    51.5530 ca         1 65L      -0.009000
     12 C28         52.0670   -36.6650    49.9060 ca         1 65L       0.431900
     13 O1          64.9800   -37.5350    52.4360 oh         1 65L      -0.650000
     14 C3          62.6420   -36.9340    52.9070 cc         1 65L       0.252300
     15 N6          60.7210   -36.5370    52.1990 na         1 65L       0.230000
     16 N7          61.5560   -37.5870    52.5300 nd         1 65L      -0.496800
     17 C9          58.3550   -35.9480    52.2850 ca         1 65L      -0.119000
     18 C11         56.8050   -36.8240    50.6050 ca         1 65L       0.272000
     19 C14         53.9140   -36.9200    51.9060 ca         1 65L      -0.228000
     20 N16         52.2130   -36.9220    53.5620 nb         1 65L      -0.786000
     21 O18         50.4970   -36.9300    55.1930 os         1 65L      -0.465300
     22 C19         51.4430   -36.7730    56.2760 c6         1 65L       0.182300
     23 N22         52.1510   -35.6140    58.8870 n7         1 65L      -0.863400
     24 C23         51.7430   -37.0350    58.7910 c6         1 65L       0.160800
     25 C25         49.9000   -36.7170    52.9050 ca         1 65L      -0.192000
     26 C27         51.6230   -36.7170    51.2360 ca         1 65L      -0.225000
     27 N29         53.3710   -36.7310    49.5670 nb         1 65L      -0.738000
     28 C30         57.8940   -37.4850    49.9850 ca         1 65L       0.137000
     29 F31         57.6980   -38.2250    48.8670 f          1 65L      -0.173000
     30 C32         59.1910   -37.3920    50.5180 ca         1 65L      -0.113000
     31 H1          63.2950   -34.8150    53.0600 ha         1 65L       0.148000
     32 H2          60.7530   -34.3380    52.0970 h4         1 65L       0.157000
     33 H3          56.2510   -35.4850    52.2210 ha         1 65L       0.135000
     34 H4          55.4810   -37.1420    49.0690 hn         1 65L       0.520000
     35 H6          51.0020   -34.6490    56.5320 hc         1 65L       0.060950
     36 H7          53.7450   -35.6680    57.4900 h1         1 65L       0.032450
     37 H8          53.0600   -34.0540    57.7750 h1         1 65L       0.032450
     38 H9          49.8500   -36.7220    57.7640 hc         1 65L       0.060950
     39 H10         50.5420   -38.3250    57.5140 hc         1 65L       0.060950
     40 H11         49.4980   -36.5480    50.7790 ha         1 65L       0.123000
     41 H12         51.3590   -36.5700    49.0840 h4         1 65L       0.020100
     42 H13         65.7510   -38.0030    52.8280 ho         1 65L       0.442000
     43 H16         58.5250   -35.3450    53.1740 ha         1 65L       0.126000
     44 H17         54.6730   -37.0560    52.6650 ha         1 65L       0.143000
     45 H18         52.3250   -37.4030    56.0840 h1         1 65L       0.066700
     46 H19         52.8030   -35.5080    59.6750 hn         1 65L       0.413000
     47 H21         51.2400   -37.3360    59.7220 h1         1 65L       0.032450
     48 H22         52.6360   -37.6660    58.6750 h1         1 65L       0.032450
     49 H23         48.8590   -36.6730    53.2080 ha         1 65L       0.140000
     50 H24         60.0090   -37.9150    50.0300 ha         1 65L       0.165000
     51 N12         55.5140   -36.9130    50.0590 nu         1 65L      -0.941900
     52 C2          63.9110   -37.6070    53.3990 c3         1 65L       0.139300
     53 H5          52.4150   -34.9560    55.5250 hc         1 65L       0.060950
     54 H14         63.6860   -38.6560    53.6340 h1         1 65L       0.030200
     55 H15         64.2160   -37.1240    54.3370 h1         1 65L       0.030200
@<TRIPOS>BOND
     1     1     2 2   
     2     1    14 1   
     3     1    31 1   
     4     2    15 1   
     5     2    32 1   
     6     3    15 1   
     7     3    17 ar  
     8     3    30 ar  
     9     4    17 ar  
    10     4    18 ar  
    11     4    33 1   
    12     5    19 ar  
    13     5    27 ar  
    14     5    51 1   
    15     6    19 ar  
    16     6    20 ar  
    17     6    26 ar  
    18     7    20 ar  
    19     7    21 1   
    20     7    25 ar  
    21     8     9 1   
    22     8    22 1   
    23     8    35 1   
    24     8    53 1   
    25     9    23 1   
    26     9    36 1   
    27     9    37 1   
    28    10    22 1   
    29    10    24 1   
    30    10    38 1   
    31    10    39 1   
    32    11    25 ar  
    33    11    26 ar  
    34    11    40 1   
    35    12    26 ar  
    36    12    27 ar  
    37    12    41 1   
    38    13    42 1   
    39    13    52 1   
    40    14    16 2   
    41    14    52 1   
    42    15    16 1   
    43    17    43 1   
    44    18    28 ar  
    45    18    51 1   
    46    19    44 1   
    47    21    22 1   
    48    22    45 1   
    49    23    24 1   
    50    23    46 1   
    51    24    47 1   
    52    24    48 1   
    53    25    49 1   
    54    28    29 1   
    55    28    30 ar  
    56    30    50 1   
    57    34    51 1   
    58    52    54 1   
    59    52    55 1   
@<TRIPOS>SUBSTRUCTURE
     1 65L         1 TEMP              0 ****  ****    0 ROOT
