@<TRIPOS>MOLECULE
65L
   55    59     1     0     0
SMALL
bcc


@<TRIPOS>ATOM
      1 C4          62.3090   -35.7230    53.6020 cc         1 65L      -0.290300
      2 C5          61.0460   -35.3450    53.2320 cd         1 65L      -0.129300
      3 C8          59.2890   -36.4250    51.8550 ca         1 65L       0.021800
      4 C10         56.9770   -35.7820    51.7220 ca         1 65L      -0.130000
      5 C13         54.2930   -36.8160    50.4790 ca         1 65L       0.689200
      6 C15         52.6450   -36.8830    52.2200 ca         1 65L       0.512600
      7 C17         51.0660   -36.9250    53.8630 ca         1 65L       0.699600
      8 C20         51.9800   -35.1820    56.3060 c6         1 65L      -0.090400
      9 C21         52.8640   -34.9540    57.5260 c6         1 65L       0.160800
     10 C24         51.0540   -37.2000    57.4590 c6         1 65L      -0.090400
     11 C26         50.3060   -37.0910    51.6080 ca         1 65L      -0.027000
     12 C28         52.0950   -37.0150    49.8800 ca         1 65L       0.497200
     13 O1          64.4020   -37.7140    51.8280 oh         1 65L      -0.587800
     14 C3          62.4950   -36.9870    53.0080 cc         1 65L       0.317600
     15 N6          60.5510   -36.3510    52.4710 na         1 65L       0.179300
     16 N7          61.4240   -37.3490    52.3300 nd         1 65L      -0.496800
     17 C9          58.2100   -35.7050    52.3480 ca         1 65L      -0.137000
     18 C11         56.7700   -36.6130    50.6220 ca         1 65L       0.133600
     19 C14         53.9900   -36.8050    51.8300 ca         1 65L      -0.376600
     20 N16         52.3230   -36.8460    53.5360 nb         1 65L      -0.786000
     21 O18         50.6910   -36.8880    55.1340 os         1 65L      -0.442100
     22 C19         51.6560   -36.6640    56.1720 c6         1 65L       0.159100
     23 N22         52.2130   -35.4670    58.7180 n7         1 65L      -0.808200
     24 C23         51.9830   -36.8970    58.6280 c6         1 65L       0.160800
     25 C25         49.9950   -37.0600    52.9290 ca         1 65L      -0.275300
     26 C27         51.6600   -36.9970    51.2140 ca         1 65L      -0.355600
     27 N29         53.3460   -36.9220    49.5190 nb         1 65L      -0.738000
     28 C30         57.8820   -37.3130    50.1540 ca         1 65L       0.101900
     29 F31         57.7290   -38.0900    49.0720 f          1 65L      -0.137900
     30 C32         59.1260   -37.2290    50.7320 ca         1 65L      -0.131000
     31 H1          63.0060   -35.1680    54.2080 ha         1 65L       0.166000
     32 H2          60.4870   -34.4480    53.4380 h4         1 65L       0.175000
     33 H3          56.1650   -35.1780    52.1020 ha         1 65L       0.153000
     34 H4          55.5960   -36.9420    48.9680 hn         1 65L       0.464800
     35 H6          51.0500   -34.6160    56.4160 hc         1 65L       0.060950
     36 H7          53.8460   -35.4220    57.3460 h1         1 65L       0.032450
     37 H8          53.0430   -33.8850    57.6510 h1         1 65L       0.032450
     38 H9          50.0840   -36.7290    57.6390 hc         1 65L       0.060950
     39 H10         50.8940   -38.2780    57.3840 hc         1 65L       0.060950
     40 H11         49.5320   -37.1870    50.8560 ha         1 65L       0.141000
     41 H12         51.3620   -37.1110    49.0840 h4         1 65L       0.020100
     42 H13         65.1870   -38.2690    51.8680 ho         1 65L       0.403000
     43 H16         58.3100   -35.0750    53.2210 ha         1 65L       0.144000
     44 H17         54.7490   -36.7520    52.5960 ha         1 65L       0.161000
     45 H18         52.5730   -37.2150    55.9410 h1         1 65L       0.066700
     46 H19         52.7850   -35.2670    59.5270 hn         1 65L       0.357800
     47 H21         51.5240   -37.2420    59.5560 h1         1 65L       0.032450
     48 H22         52.9170   -37.4700    58.5020 h1         1 65L       0.032450
     49 H23         48.9760   -37.1290    53.2830 ha         1 65L       0.158000
     50 H24         59.9520   -37.7910    50.3190 ha         1 65L       0.183000
     51 N12         55.5600   -36.7420    49.9570 nu         1 65L      -0.748300
     52 C2          63.7080   -37.8550    53.0500 c3         1 65L       0.116100
     53 H5          52.4890   -34.8170    55.4130 hc         1 65L       0.060950
     54 H14         63.4050   -38.8940    53.2240 h1         1 65L       0.030200
     55 H15         64.3240   -37.5520    53.9030 h1         1 65L       0.030200
@<TRIPOS>BOND
     1     1     2 2   
     2     1    14 1   
     3     1    31 1   
     4     2    15 1   
     5     2    32 1   
     6     3    15 1   
     7     3    17 ar  
     8     3    30 ar  
     9     4    17 ar  
    10     4    18 ar  
    11     4    33 1   
    12     5    19 ar  
    13     5    27 ar  
    14     5    51 1   
    15     6    19 ar  
    16     6    20 ar  
    17     6    26 ar  
    18     7    20 ar  
    19     7    21 1   
    20     7    25 ar  
    21     8     9 1   
    22     8    22 1   
    23     8    35 1   
    24     8    53 1   
    25     9    23 1   
    26     9    36 1   
    27     9    37 1   
    28    10    22 1   
    29    10    24 1   
    30    10    38 1   
    31    10    39 1   
    32    11    25 ar  
    33    11    26 ar  
    34    11    40 1   
    35    12    26 ar  
    36    12    27 ar  
    37    12    41 1   
    38    13    42 1   
    39    13    52 1   
    40    14    16 2   
    41    14    52 1   
    42    15    16 1   
    43    17    43 1   
    44    18    28 ar  
    45    18    51 1   
    46    19    44 1   
    47    21    22 1   
    48    22    45 1   
    49    23    24 1   
    50    23    46 1   
    51    24    47 1   
    52    24    48 1   
    53    25    49 1   
    54    28    29 1   
    55    28    30 ar  
    56    30    50 1   
    57    34    51 1   
    58    52    54 1   
    59    52    55 1   
@<TRIPOS>SUBSTRUCTURE
     1 65L         1 TEMP              0 ****  ****    0 ROOT
