@<TRIPOS>MOLECULE
65M
   39    40     1     0     0
SMALL
abcg2


@<TRIPOS>ATOM
      1 C17         -0.4090     7.5640    12.7070 ca         1 65M      -0.113300
      2 C20          0.9430     9.7260    13.8650 ca         1 65M      -0.107000
      3 C21         -0.1020     9.1070    14.5440 ca         1 65M      -0.110000
      4 C22         -0.7730     8.0340    13.9680 ca         1 65M      -0.099500
      5 C01         -6.9180     3.2960    15.9490 ca         1 65M      -0.045000
      6 C02         -6.7150     4.5740    15.4430 ca         1 65M      -0.103000
      7 C03         -5.5120     4.9360    14.8540 ca         1 65M      -0.078000
      8 C04         -4.4720     4.0020    14.7500 ca         1 65M      -0.022000
      9 C05         -4.6630     2.7170    15.2650 ca         1 65M      -0.071000
     10 C06         -5.8750     2.3830    15.8540 ca         1 65M      -0.243500
     11 C08         -2.9080     5.3230    13.3280 c          1 65M       0.662100
     12 C11         -1.1530     6.4200    12.0510 c3         1 65M       0.157300
     13 C12         -0.5610     4.5530    13.5870 c3         1 65M       0.086300
     14 C18          0.6430     8.1850    12.0350 ca         1 65M      -0.099500
     15 C19          1.3140     9.2620    12.6070 ca         1 65M      -0.110000
     16 N07         -3.2230     4.2900    14.1920 ns         1 65M      -0.166000
     17 N09         -1.5900     5.3960    12.9890 n          1 65M      -0.429800
     18 N16         -5.5210    -0.2290    15.4060 n8         1 65M      -1.028100
     19 O10         -3.7550     6.1100    12.9000 o          1 65M      -0.628100
     20 O14         -5.1450     0.6320    17.6870 o          1 65M      -0.552000
     21 O15         -7.4790     0.5860    16.8490 o          1 65M      -0.552000
     22 S13         -6.0700     0.7770    16.5820 sy         1 65M       1.154600
     23 H201         1.4670    10.5600    14.3140 ha         1 65M       0.114000
     24 H211        -0.3950     9.4590    15.5260 ha         1 65M       0.114000
     25 H221        -1.5810     7.5540    14.5070 ha         1 65M       0.114000
     26 H011        -7.8560     3.0130    16.4040 ha         1 65M       0.143000
     27 H021        -7.5090     5.3070    15.5120 ha         1 65M       0.122000
     28 H031        -5.3710     5.9310    14.4690 ha         1 65M       0.152000
     29 H051        -3.8700     1.9840    15.1940 ha         1 65M       0.123000
     30 H112        -0.5140     5.9560    11.2970 h1         1 65M       0.070700
     31 H111        -2.0390     6.7980    11.5440 h1         1 65M       0.070700
     32 H121        -0.5770     4.6130    14.6770 h1         1 65M       0.043367
     33 H123        -0.6660     3.5080    13.2820 h1         1 65M       0.043367
     34 H122         0.4090     4.9040    13.2460 h1         1 65M       0.043367
     35 H181         0.9420     7.8190    11.0600 ha         1 65M       0.114000
     36 H191         2.1310     9.7310    12.0730 ha         1 65M       0.114000
     37 H071        -2.5220     3.5830    14.3450 hn         1 65M       0.153000
     38 H161        -5.1060    -1.0660    15.8030 hn         1 65M       0.481500
     39 H162        -6.2240    -0.4430    14.7060 hn         1 65M       0.481500
@<TRIPOS>BOND
     1     1     4 ar  
     2     1    12 1   
     3     1    14 ar  
     4     2     3 ar  
     5     2    15 ar  
     6     2    23 1   
     7     3     4 ar  
     8     3    24 1   
     9     4    25 1   
    10     5     6 ar  
    11     5    10 ar  
    12     5    26 1   
    13     6     7 ar  
    14     6    27 1   
    15     7     8 ar  
    16     7    28 1   
    17     8     9 ar  
    18     8    16 1   
    19     9    10 ar  
    20     9    29 1   
    21    10    22 1   
    22    11    16 1   
    23    11    17 1   
    24    11    19 2   
    25    12    17 1   
    26    12    30 1   
    27    12    31 1   
    28    13    17 1   
    29    13    32 1   
    30    13    33 1   
    31    13    34 1   
    32    14    15 ar  
    33    14    35 1   
    34    15    36 1   
    35    16    37 1   
    36    18    22 1   
    37    18    38 1   
    38    18    39 1   
    39    20    22 2   
    40    21    22 2   
@<TRIPOS>SUBSTRUCTURE
     1 65M         1 TEMP              0 ****  ****    0 ROOT
