@<TRIPOS>MOLECULE
65M
   39    40     1     0     0
SMALL
No Charge or Current Charge


@<TRIPOS>ATOM
      1 C17         -0.4140     7.7400    12.7240 ca         1 65M      -0.113300
      2 C20          1.0310     9.6050    14.2700 ca         1 65M      -0.107000
      3 C21         -0.3730     9.6400    14.2560 ca         1 65M      -0.110000
      4 C22         -1.0930     8.7100    13.4860 ca         1 65M      -0.099500
      5 C01         -6.8080     3.1010    15.9960 ca         1 65M      -0.045000
      6 C02         -6.8230     4.3540    15.3630 ca         1 65M      -0.103000
      7 C03         -5.6860     4.8200    14.6800 ca         1 65M      -0.078000
      8 C04         -4.5160     4.0290    14.6200 ca         1 65M      -0.022000
      9 C05         -4.5080     2.7740    15.2610 ca         1 65M      -0.071000
     10 C06         -5.6470     2.3040    15.9500 ca         1 65M      -0.243500
     11 C08         -3.0070     5.5460    13.1860 c          1 65M       0.662100
     12 C11         -1.1970     6.7300    11.8940 c3         1 65M       0.157300
     13 C12         -0.7040     4.5080    12.9950 c3         1 65M       0.086300
     14 C18          0.9950     7.7090    12.7420 ca         1 65M      -0.099500
     15 C19          1.7150     8.6390    13.5120 ca         1 65M      -0.110000
     16 N07         -3.3260     4.4290    13.9500 ns         1 65M      -0.166000
     17 N09         -1.6810     5.5810    12.6940 n          1 65M      -0.429800
     18 N16         -6.1350    -0.3210    15.5970 n8         1 65M      -1.028100
     19 O10         -3.8000     6.4450    12.9380 o          1 65M      -0.628100
     20 O14         -4.2520     0.2520    17.0140 o          1 65M      -0.552000
     21 O15         -6.6700     0.6000    17.7760 o          1 65M      -0.552000
     22 S13         -5.6220     0.6940    16.7630 sy         1 65M       1.154600
     23 H201         1.5890    10.3240    14.8660 ha         1 65M       0.114000
     24 H211        -0.9040    10.3870    14.8430 ha         1 65M       0.114000
     25 H221        -2.1810     8.7430    13.4830 ha         1 65M       0.114000
     26 H011        -7.6980     2.7540    16.5200 ha         1 65M       0.143000
     27 H021        -7.7190     4.9680    15.4030 ha         1 65M       0.122000
     28 H031        -5.7360     5.7950    14.2080 ha         1 65M       0.152000
     29 H051        -3.6100     2.1590    15.2190 ha         1 65M       0.123000
     30 H112        -0.5590     6.3530    11.0840 h1         1 65M       0.070700
     31 H111        -2.0410     7.2380    11.4090 h1         1 65M       0.070700
     32 H121        -0.5520     4.4350    14.0800 h1         1 65M       0.043367
     33 H123        -1.0730     3.5480    12.6110 h1         1 65M       0.043367
     34 H122         0.2630     4.7240    12.5220 h1         1 65M       0.043367
     35 H181         1.5340     6.9640    12.1600 ha         1 65M       0.114000
     36 H191         2.8030     8.6100    13.5220 ha         1 65M       0.114000
     37 H071        -2.5630     3.7740    14.0520 hn         1 65M       0.153000
     38 H161        -5.3830    -1.0060    15.6200 hn         1 65M       0.481500
     39 H162        -6.8760    -0.8030    16.1000 hn         1 65M       0.481500
@<TRIPOS>BOND
     1     1     4 ar  
     2     1    12 1   
     3     1    14 ar  
     4     2     3 ar  
     5     2    15 ar  
     6     2    23 1   
     7     3     4 ar  
     8     3    24 1   
     9     4    25 1   
    10     5     6 ar  
    11     5    10 ar  
    12     5    26 1   
    13     6     7 ar  
    14     6    27 1   
    15     7     8 ar  
    16     7    28 1   
    17     8     9 ar  
    18     8    16 1   
    19     9    10 ar  
    20     9    29 1   
    21    10    22 1   
    22    11    16 1   
    23    11    17 1   
    24    11    19 2   
    25    12    17 1   
    26    12    30 1   
    27    12    31 1   
    28    13    17 1   
    29    13    32 1   
    30    13    33 1   
    31    13    34 1   
    32    14    15 ar  
    33    14    35 1   
    34    15    36 1   
    35    16    37 1   
    36    18    22 1   
    37    18    38 1   
    38    18    39 1   
    39    20    22 2   
    40    21    22 2   
@<TRIPOS>SUBSTRUCTURE
     1 65M         1 TEMP              0 ****  ****    0 ROOT
