@<TRIPOS>MOLECULE
65N
   38    40     1     0     0
SMALL
bcc


@<TRIPOS>ATOM
      1 C4          -3.5930    -0.2950    -0.9540 ca         1 65N       0.373300
      2 C5          -3.5510     0.1420     0.3710 ca         1 65N       0.116000
      3 C6          -4.8050     0.1030     1.0800 ca         1 65N       0.709900
      4 N1          -5.8960    -0.3350     0.4910 nb         1 65N      -0.865000
      5 N3          -4.7210    -0.7390    -1.5490 nb         1 65N      -0.807000
      6 FAD          5.4080     0.9440    -1.9960 f          1 65N      -0.231633
      7 CAY          5.4320    -0.3140    -1.5510 c3         1 65N       0.851700
      8 FAE          4.7130    -1.0400    -2.4090 f          1 65N      -0.231633
      9 FAF          6.6830    -0.7460    -1.5890 f          1 65N      -0.231633
     10 CAS          3.6950    -0.0300    -0.0160 ca         1 65N       0.054100
     11 CAH          3.4480     1.2630     0.4040 ca         1 65N      -0.088000
     12 CAJ          2.1530     1.6420     0.7240 ca         1 65N      -0.170000
     13 CAG          2.6680    -0.9570    -0.0990 ca         1 65N      -0.088000
     14 CAI          1.3810    -0.5800     0.2380 ca         1 65N      -0.170000
     15 CAT          1.0960     0.7320     0.6350 ca         1 65N       0.190600
     16 CAA         -0.3540     2.1140     2.0360 c3         1 65N       0.222100
     17 CAU         -1.3170     0.6220     0.3390 ca         1 65N       0.648200
     18 NAO         -2.4470     0.5770     0.9970 nb         1 65N      -0.708000
     19 NAC         -4.8500     0.5210     2.3430 nv         1 65N      -0.953500
     20 C2          -5.8020    -0.7380    -0.7950 ca         1 65N       0.940900
     21 NAB         -6.9490    -1.2200    -1.3320 nv         1 65N      -0.937500
     22 CAL         -2.3660    -0.2240    -1.6570 ca         1 65N      -0.146300
     23 CAK         -1.2480     0.2360    -1.0290 ca         1 65N      -0.234300
     24 H1           4.2530     1.9810     0.4880 ha         1 65N       0.152500
     25 H2           1.9750     2.6620     1.0360 ha         1 65N       0.146500
     26 H3           2.8710    -1.9800    -0.3860 ha         1 65N       0.152500
     27 H4           0.5960    -1.3230     0.2060 ha         1 65N       0.146500
     28 H5          -0.1750     3.1240     1.6590 h1         1 65N       0.045033
     29 H6          -1.3630     2.0700     2.4290 h1         1 65N       0.045033
     30 H7           0.3400     1.9220     2.8530 h1         1 65N       0.045033
     31 H8          -4.0070     0.8160     2.8060 hn         1 65N       0.454300
     32 H9          -5.7070     0.4820     2.8670 hn         1 65N       0.454300
     33 H10         -7.8120    -0.9930    -0.8700 hn         1 65N       0.431300
     34 H11         -6.9950    -1.3030    -2.3330 hn         1 65N       0.431300
     35 H12         -2.3330    -0.5100    -2.7010 ha         1 65N       0.157000
     36 H13         -0.3220     0.3250    -1.5810 ha         1 65N       0.152000
     37 NAX         -0.1950     1.1100     0.9990 nh         1 65N      -0.683700
     38 OAP          5.0020    -0.4260    -0.2890 os         1 65N      -0.373900
@<TRIPOS>BOND
     1     1     2 ar  
     2     1     5 ar  
     3     1    22 ar  
     4     2     3 ar  
     5     2    18 ar  
     6     3     4 ar  
     7     3    19 1   
     8     4    20 ar  
     9     5    20 ar  
    10     6     7 1   
    11     7     8 1   
    12     7     9 1   
    13     7    38 1   
    14    10    11 ar  
    15    10    13 ar  
    16    10    38 1   
    17    11    12 ar  
    18    11    24 1   
    19    12    15 ar  
    20    12    25 1   
    21    13    14 ar  
    22    13    26 1   
    23    14    15 ar  
    24    14    27 1   
    25    15    37 1   
    26    16    28 1   
    27    16    29 1   
    28    16    30 1   
    29    16    37 1   
    30    17    18 ar  
    31    17    23 ar  
    32    17    37 1   
    33    19    31 1   
    34    19    32 1   
    35    20    21 1   
    36    21    33 1   
    37    21    34 1   
    38    22    23 ar  
    39    22    35 1   
    40    23    36 1   
@<TRIPOS>SUBSTRUCTURE
     1 65N         1 TEMP              0 ****  ****    0 ROOT
