@<TRIPOS>MOLECULE
65N
   38    40     1     0     0
SMALL
No Charge or Current Charge


@<TRIPOS>ATOM
      1 C4          -3.7460    -0.3400    -0.8990 ca         1 65N       0.045000
      2 C5          -3.6720     0.2320     0.4030 ca         1 65N       0.116000
      3 C6          -4.9100     0.2920     1.1160 ca         1 65N       0.446900
      4 N1          -6.0660    -0.1620     0.6160 nb         1 65N      -0.339000
      5 N3          -4.9180    -0.7900    -1.3980 nb         1 65N      -0.281000
      6 FAD          6.4250     0.7900    -0.0400 f          1 65N      -0.110333
      7 CAY          6.0280     0.0120    -1.0730 c3         1 65N       0.511000
      8 FAE          5.7940     0.8170    -2.1350 f          1 65N      -0.110333
      9 FAF          7.0790    -0.7720    -1.4000 f          1 65N      -0.110333
     10 CAS          3.6510    -0.2750    -0.3620 ca         1 65N       0.054100
     11 CAH          3.3840     1.1110    -0.2630 ca         1 65N      -0.070000
     12 CAJ          2.1060     1.5550     0.1270 ca         1 65N      -0.152000
     13 CAG          2.6280    -1.1910    -0.0660 ca         1 65N      -0.070000
     14 CAI          1.3540    -0.7400     0.3230 ca         1 65N      -0.152000
     15 CAT          1.0810     0.6370     0.4200 ca         1 65N       0.329000
     16 CAA         -0.2980     2.0640     1.9280 c3         1 65N       0.222100
     17 CAU         -1.3680     0.5910     0.1980 ca         1 65N       0.582900
     18 NAO         -2.4950     0.6870     0.9310 nb         1 65N      -0.708000
     19 NAC         -5.0190     0.8100     2.3780 nv         1 65N      -1.063900
     20 C2          -5.9970    -0.6750    -0.6120 ca         1 65N       0.414900
     21 NAB         -7.1600    -1.1310    -1.1250 nv         1 65N      -1.047900
     22 CAL         -2.5650    -0.4250    -1.6560 ca         1 65N      -0.063000
     23 CAK         -1.3660     0.0490    -1.1020 ca         1 65N      -0.151000
     24 H1           4.1430     1.8550    -0.4830 ha         1 65N       0.134500
     25 H2           1.9090     2.6210     0.1900 ha         1 65N       0.128500
     26 H3           2.8250    -2.2580    -0.1360 ha         1 65N       0.134500
     27 H4           0.5780    -1.4620     0.5570 ha         1 65N       0.128500
     28 H5          -0.8650     2.9510     1.6160 h1         1 65N       0.045033
     29 H6          -0.7870     1.6100     2.8010 h1         1 65N       0.045033
     30 H7           0.6950     2.4020     2.2510 h1         1 65N       0.045033
     31 H8          -4.1420     0.9680     2.8700 hn         1 65N       0.509500
     32 H9          -5.8160     0.5330     2.9440 hn         1 65N       0.509500
     33 H10         -8.0260    -0.8610    -0.6660 hn         1 65N       0.486500
     34 H11         -7.2090    -1.3190    -2.1230 hn         1 65N       0.486500
     35 H12         -2.5800    -0.8490    -2.6570 ha         1 65N       0.139000
     36 H13         -0.4490     0.0030    -1.6800 ha         1 65N       0.134000
     37 NAX         -0.1970     1.0870     0.8110 nh         1 65N      -0.822100
     38 OAP          4.8780    -0.7920    -0.7380 os         1 65N      -0.397100
@<TRIPOS>BOND
     1     1     2 ar  
     2     1     5 ar  
     3     1    22 ar  
     4     2     3 ar  
     5     2    18 ar  
     6     3     4 ar  
     7     3    19 1   
     8     4    20 ar  
     9     5    20 ar  
    10     6     7 1   
    11     7     8 1   
    12     7     9 1   
    13     7    38 1   
    14    10    11 ar  
    15    10    13 ar  
    16    10    38 1   
    17    11    12 ar  
    18    11    24 1   
    19    12    15 ar  
    20    12    25 1   
    21    13    14 ar  
    22    13    26 1   
    23    14    15 ar  
    24    14    27 1   
    25    15    37 1   
    26    16    28 1   
    27    16    29 1   
    28    16    30 1   
    29    16    37 1   
    30    17    18 ar  
    31    17    23 ar  
    32    17    37 1   
    33    19    31 1   
    34    19    32 1   
    35    20    21 1   
    36    21    33 1   
    37    21    34 1   
    38    22    23 ar  
    39    22    35 1   
    40    23    36 1   
@<TRIPOS>SUBSTRUCTURE
     1 65N         1 TEMP              0 ****  ****    0 ROOT
