@<TRIPOS>MOLECULE
65O
   37    40     1     0     0
SMALL
No Charge or Current Charge


@<TRIPOS>ATOM
      1 C4           2.0040    -0.3250    -1.1570 ca         1 65O       0.222300
      2 C5           2.2520     0.4360    -0.0230 ca         1 65O      -0.299800
      3 C6           3.3830     0.0820     0.7320 ca         1 65O       0.470900
      4 N1           4.1810    -0.9310     0.3770 nb         1 65O      -0.353000
      5 N3           2.7860    -1.3480    -1.5380 nb         1 65O      -0.263000
      6 CAQ          1.2630     1.4920     0.2020 cc         1 65O       0.030600
      7 NAC          3.7740     0.7170     1.8600 nv         1 65O      -1.074900
      8 C2           3.8330    -1.5870    -0.7360 ca         1 65O       0.427900
      9 NAB          4.6440    -2.6080    -1.0920 nv         1 65O      -1.052900
     10 SAN          0.5660     0.1650    -2.0580 ss         1 65O      -0.101900
     11 CAS          0.3310     1.4350    -0.8310 cd         1 65O      -0.018800
     12 SAM         -1.0880     2.5010    -0.8450 ss         1 65O      -0.062600
     13 CAR         -2.2210     1.1080    -0.9320 ca         1 65O      -0.127000
     14 CAU         -2.5480     0.3120     0.1960 ca         1 65O       0.001000
     15 CAJ         -2.0220     0.5850     1.4790 ca         1 65O      -0.098000
     16 CAE         -2.3550    -0.2280     2.5760 ca         1 65O      -0.102000
     17 CAD         -3.2190    -1.3200     2.4080 ca         1 65O      -0.108000
     18 CAH         -3.7570    -1.5980     1.1420 ca         1 65O      -0.096000
     19 CAT         -3.4290    -0.7870     0.0380 ca         1 65O      -0.045000
     20 CAI         -3.9830    -1.0760    -1.2220 ca         1 65O      -0.074000
     21 CAF         -3.6700    -0.2730    -2.3300 ca         1 65O      -0.122000
     22 CAG         -2.7950     0.8140    -2.1840 ca         1 65O      -0.054000
     23 H1           1.2200     1.9410     2.3150 hc         1 65O       0.050033
     24 H2           2.1860     3.0770     1.3430 hc         1 65O       0.050033
     25 H3           0.4300     3.1690     1.3270 hc         1 65O       0.050033
     26 H4           3.4040     1.6430     2.0400 hn         1 65O       0.498000
     27 H5           4.7080     0.5230     2.2120 hn         1 65O       0.498000
     28 H6           5.5560    -2.6700    -0.6470 hn         1 65O       0.492000
     29 H7           4.5680    -2.9820    -2.0340 hn         1 65O       0.492000
     30 H8          -1.3600     1.4270     1.6440 ha         1 65O       0.125000
     31 H9          -1.9420    -0.0080     3.5580 ha         1 65O       0.112000
     32 H10         -3.4760    -1.9470     3.2590 ha         1 65O       0.114000
     33 H11         -4.4310    -2.4430     1.0210 ha         1 65O       0.112000
     34 H12         -4.6600    -1.9180    -1.3450 ha         1 65O       0.114000
     35 H13         -4.1020    -0.4960    -3.3020 ha         1 65O       0.117000
     36 H14         -2.5510     1.4260    -3.0490 ha         1 65O       0.126000
     37 CAA          1.2730     2.4700     1.3570 c3         1 65O      -0.051900
@<TRIPOS>BOND
     1     1     2 ar  
     2     1     5 ar  
     3     1    10 1   
     4     2     3 ar  
     5     2     6 1   
     6     3     4 ar  
     7     3     7 1   
     8     4     8 ar  
     9     5     8 ar  
    10     6    11 2   
    11     6    37 1   
    12     7    26 1   
    13     7    27 1   
    14     8     9 1   
    15     9    28 1   
    16     9    29 1   
    17    10    11 1   
    18    11    12 1   
    19    12    13 1   
    20    13    14 ar  
    21    13    22 ar  
    22    14    15 ar  
    23    14    19 ar  
    24    15    16 ar  
    25    15    30 1   
    26    16    17 ar  
    27    16    31 1   
    28    17    18 ar  
    29    17    32 1   
    30    18    19 ar  
    31    18    33 1   
    32    19    20 ar  
    33    20    21 ar  
    34    20    34 1   
    35    21    22 ar  
    36    21    35 1   
    37    22    36 1   
    38    23    37 1   
    39    24    37 1   
    40    25    37 1   
@<TRIPOS>SUBSTRUCTURE
     1 65O         1 TEMP              0 ****  ****    0 ROOT
