@<TRIPOS>MOLECULE
65O
   37    40     1     0     0
SMALL
abcg2


@<TRIPOS>ATOM
      1 C4           2.2510    -0.3900    -1.1000 ca         1 65O       0.222300
      2 C5           2.4300     0.4310     0.0140 ca         1 65O      -0.299800
      3 C6           3.6280     0.1690     0.7370 ca         1 65O       0.470900
      4 N1           4.4490    -0.7980     0.3440 nb         1 65O      -0.353000
      5 N3           3.0580    -1.3570    -1.5070 nb         1 65O      -0.263000
      6 CAQ          1.3570     1.3690     0.2090 cc         1 65O       0.030600
      7 NAC          3.9830     0.8510     1.8310 nv         1 65O      -1.074900
      8 C2           4.1370    -1.5150    -0.7390 ca         1 65O       0.427900
      9 NAB          4.9860    -2.5100    -1.0680 nv         1 65O      -1.052900
     10 SAN          0.7890     0.0020    -1.9360 ss         1 65O      -0.101900
     11 CAS          0.4130     1.2430    -0.7640 cd         1 65O      -0.018800
     12 SAM         -1.0180     2.2230    -0.9880 ss         1 65O      -0.062600
     13 CAR         -2.2960     0.9850    -1.0120 ca         1 65O      -0.127000
     14 CAU         -2.6540     0.2530     0.1560 ca         1 65O       0.001000
     15 CAJ         -2.0400     0.4410     1.4160 ca         1 65O      -0.098000
     16 CAE         -2.4160    -0.3050     2.5000 ca         1 65O      -0.102000
     17 CAD         -3.4260    -1.2800     2.3850 ca         1 65O      -0.108000
     18 CAH         -4.0500    -1.4760     1.1830 ca         1 65O      -0.096000
     19 CAT         -3.6870    -0.7180     0.0460 ca         1 65O      -0.045000
     20 CAI         -4.3460    -0.9040    -1.1930 ca         1 65O      -0.074000
     21 CAF         -3.9980    -0.1640    -2.2860 ca         1 65O      -0.122000
     22 CAG         -2.9570     0.7820    -2.1950 ca         1 65O      -0.054000
     23 H1           1.3130     1.8410     2.3000 hc         1 65O       0.050033
     24 H2           2.0960     3.0680     1.2990 hc         1 65O       0.050033
     25 H3           0.3490     2.9170     1.2960 hc         1 65O       0.050033
     26 H4           3.4990     1.6750     2.1350 hn         1 65O       0.498000
     27 H5           4.8840     0.6700     2.2410 hn         1 65O       0.498000
     28 H6           5.9000    -2.5140    -0.6510 hn         1 65O       0.492000
     29 H7           4.9060    -2.9250    -1.9800 hn         1 65O       0.492000
     30 H8          -1.2710     1.1920     1.5270 ha         1 65O       0.125000
     31 H9          -1.9360    -0.1420     3.4560 ha         1 65O       0.112000
     32 H10         -3.7090    -1.8670     3.2480 ha         1 65O       0.114000
     33 H11         -4.8350    -2.2150     1.0880 ha         1 65O       0.112000
     34 H12         -5.1360    -1.6420    -1.2590 ha         1 65O       0.114000
     35 H13         -4.5050    -0.3060    -3.2310 ha         1 65O       0.117000
     36 H14         -2.6720     1.3470    -3.0740 ha         1 65O       0.126000
     37 CAA          1.2760     2.3480     1.3340 c3         1 65O      -0.051900
@<TRIPOS>BOND
     1     1     2 ar  
     2     1     5 ar  
     3     1    10 1   
     4     2     3 ar  
     5     2     6 1   
     6     3     4 ar  
     7     3     7 1   
     8     4     8 ar  
     9     5     8 ar  
    10     6    11 2   
    11     6    37 1   
    12     7    26 1   
    13     7    27 1   
    14     8     9 1   
    15     9    28 1   
    16     9    29 1   
    17    10    11 1   
    18    11    12 1   
    19    12    13 1   
    20    13    14 ar  
    21    13    22 ar  
    22    14    15 ar  
    23    14    19 ar  
    24    15    16 ar  
    25    15    30 1   
    26    16    17 ar  
    27    16    31 1   
    28    17    18 ar  
    29    17    32 1   
    30    18    19 ar  
    31    18    33 1   
    32    19    20 ar  
    33    20    21 ar  
    34    20    34 1   
    35    21    22 ar  
    36    21    35 1   
    37    22    36 1   
    38    23    37 1   
    39    24    37 1   
    40    25    37 1   
@<TRIPOS>SUBSTRUCTURE
     1 65O         1 TEMP              0 ****  ****    0 ROOT
