@<TRIPOS>MOLECULE
65P
   70    74     1     0     0
SMALL
abcg2


@<TRIPOS>ATOM
      1 C13          4.8180    -0.7030     0.2810 ca         1 65P      -0.061000
      2 C15          5.7580    -0.6710    -0.7390 ca         1 65P      -0.127000
      3 C17          6.5820     0.4280    -0.8650 ca         1 65P       0.132000
      4 C21          5.5370     1.4610     1.0320 ca         1 65P      -0.121000
      5 C28         -0.7150    -0.0080     0.1510 cp         1 65P       0.035000
      6 C05          0.5710    -2.0440     0.4560 ca         1 65P       0.418300
      7 N06          1.5690    -1.4090     1.0570 nb         1 65P      -0.734000
      8 C07          1.4360    -0.1030     1.2000 ca         1 65P       0.366500
      9 N08          2.3500     0.7300     1.7830 na         1 65P      -0.207400
     10 C12          4.6980     0.3590     1.1710 ca         1 65P      -0.098300
     11 F18          7.5010     0.4820    -1.8350 f          1 65P      -0.169000
     12 C19          6.4710     1.4880     0.0180 ca         1 65P       0.117000
     13 F20          7.2830     2.5410    -0.1220 f          1 65P      -0.173000
     14 C23          1.8670     2.0120     1.7100 cc         1 65P      -0.186100
     15 C25          0.6420     2.0220     1.1070 cd         1 65P      -0.219200
     16 C27          0.3450     0.6660     0.7720 ca         1 65P      -0.134800
     17 C29         -1.8720     0.7920    -0.3240 cp         1 65P      -0.055000
     18 C30         -2.0950     0.9100    -1.6970 ca         1 65P      -0.044000
     19 C32         -3.1280     1.6800    -2.1870 ca         1 65P      -0.150000
     20 C34         -3.9630     2.3570    -1.3020 ca         1 65P       0.129100
     21 O35         -4.9550     3.0890    -1.8590 os         1 65P      -0.351100
     22 C36         -5.9960     3.5350    -1.0000 c6         1 65P       0.164600
     23 C39         -5.4400     4.1090     0.2820 c6         1 65P      -0.113400
     24 C42         -4.6490     3.0380     1.0180 c6         1 65P      -0.017100
     25 C45         -3.7560     2.2710     0.0750 ca         1 65P      -0.178300
     26 C46         -2.7110     1.4730     0.5650 ca         1 65P      -0.031300
     27 C47         -2.5390     1.3550     2.0540 c3         1 65P      -0.047800
     28 C51         -0.5950    -1.3870    -0.0190 ca         1 65P      -0.074300
     29 C52         -1.6850    -2.1900    -0.6930 c3         1 65P       0.058600
     30 O54         -2.0930    -3.2670     0.1130 os         1 65P      -0.440000
     31 C55         -3.4020    -3.2430     0.6640 c3         1 65P       0.196000
     32 C56         -4.4700    -3.2350    -0.4300 c3         1 65P      -0.102433
     33 C60         -3.5060    -4.5380     1.4620 c3         1 65P      -0.102433
     34 C64         -3.5870    -2.0440     1.5930 c3         1 65P      -0.102433
     35 C68         -1.2730    -2.6680    -2.1130 c          1 65P       0.719000
     36 O69         -1.6840    -3.7770    -2.4860 o          1 65P      -0.713000
     37 O71         -0.5940    -1.8570    -2.7760 o          1 65P      -0.713000
     38 H1           4.1670    -1.5620     0.3790 ha         1 65P       0.156000
     39 H2           5.8570    -1.4960    -1.4320 ha         1 65P       0.139000
     40 H3           5.4750     2.3010     1.7140 ha         1 65P       0.124000
     41 H4           0.1980    -4.0640     1.0900 hc         1 65P       0.054700
     42 H5           0.4400    -3.9230    -0.6340 hc         1 65P       0.054700
     43 H6           1.8180    -3.7680     0.4600 hc         1 65P       0.054700
     44 H7           3.9380     1.0020     3.0740 h1         1 65P       0.062700
     45 H8           3.5720    -0.6690     2.6800 h1         1 65P       0.062700
     46 H9           2.4390     2.8330     2.1140 h4         1 65P       0.196000
     47 H10          0.0270     2.8920     0.9360 ha         1 65P       0.201000
     48 H11         -1.4570     0.3630    -2.3800 ha         1 65P       0.176000
     49 H12         -3.3010     1.7580    -3.2540 ha         1 65P       0.126000
     50 H13         -6.5540     4.2780    -1.5680 h1         1 65P       0.044200
     51 H14         -6.6730     2.7010    -0.7810 h1         1 65P       0.044200
     52 H15         -4.8020     4.9660     0.0520 hc         1 65P       0.045700
     53 H16         -6.2600     4.4780     0.9000 hc         1 65P       0.045700
     54 H17         -4.0550     3.4950     1.8120 hc         1 65P       0.043700
     55 H18         -5.3370     2.3470     1.5190 hc         1 65P       0.043700
     56 H19         -3.4910     1.1470     2.5440 hc         1 65P       0.039367
     57 H20         -1.8500     0.5590     2.3220 hc         1 65P       0.039367
     58 H21         -2.1510     2.2800     2.4850 hc         1 65P       0.039367
     59 H22         -2.5230    -1.5040    -0.8670 h1         1 65P       0.037700
     60 H23         -4.3150    -4.0590    -1.1260 hc         1 65P       0.033256
     61 H24         -5.4630    -3.3380     0.0110 hc         1 65P       0.033256
     62 H25         -4.4710    -2.3060    -1.0040 hc         1 65P       0.033256
     63 H26         -2.7410    -4.5830     2.2390 hc         1 65P       0.033256
     64 H27         -4.4810    -4.6120     1.9460 hc         1 65P       0.033256
     65 H28         -3.3880    -5.4090     0.8150 hc         1 65P       0.033256
     66 H29         -3.5690    -1.1000     1.0450 hc         1 65P       0.033256
     67 H30         -4.5490    -2.0980     2.1050 hc         1 65P       0.033256
     68 H31         -2.8000    -2.0050     2.3480 hc         1 65P       0.033256
     69 C09          3.6560     0.3340     2.2600 c3         1 65P       0.137900
     70 C01          0.7640    -3.5290     0.3280 c3         1 65P      -0.140400
@<TRIPOS>BOND
     1     1     2 ar  
     2     1    10 ar  
     3     1    38 1   
     4     2     3 ar  
     5     2    39 1   
     6     3    11 1   
     7     3    12 ar  
     8     4    10 ar  
     9     4    12 ar  
    10     4    40 1   
    11     5    16 ar  
    12     5    17 1   
    13     5    28 ar  
    14     6     7 ar  
    15     6    28 ar  
    16     6    70 1   
    17     7     8 ar  
    18     8     9 1   
    19     8    16 ar  
    20     9    14 1   
    21     9    69 1   
    22    10    69 1   
    23    12    13 1   
    24    14    15 2   
    25    14    46 1   
    26    15    16 1   
    27    15    47 1   
    28    17    18 ar  
    29    17    26 ar  
    30    18    19 ar  
    31    18    48 1   
    32    19    20 ar  
    33    19    49 1   
    34    20    21 1   
    35    20    25 ar  
    36    21    22 1   
    37    22    23 1   
    38    22    50 1   
    39    22    51 1   
    40    23    24 1   
    41    23    52 1   
    42    23    53 1   
    43    24    25 1   
    44    24    54 1   
    45    24    55 1   
    46    25    26 ar  
    47    26    27 1   
    48    27    56 1   
    49    27    57 1   
    50    27    58 1   
    51    28    29 1   
    52    29    30 1   
    53    29    35 1   
    54    29    59 1   
    55    30    31 1   
    56    31    32 1   
    57    31    33 1   
    58    31    34 1   
    59    32    60 1   
    60    32    61 1   
    61    32    62 1   
    62    33    63 1   
    63    33    64 1   
    64    33    65 1   
    65    34    66 1   
    66    34    67 1   
    67    34    68 1   
    68    35    36 1   
    69    35    37 1   
    70    41    70 1   
    71    42    70 1   
    72    43    70 1   
    73    44    69 1   
    74    45    69 1   
@<TRIPOS>SUBSTRUCTURE
     1 65P         1 TEMP              0 ****  ****    0 ROOT
