@<TRIPOS>MOLECULE
65P
   70    74     1     0     0
SMALL
No Charge or Current Charge


@<TRIPOS>ATOM
      1 C13          5.1090    -0.7020     0.2670 ca         1 65P      -0.061000
      2 C15          6.1050    -0.6740    -0.7280 ca         1 65P      -0.127000
      3 C17          6.9000     0.4720    -0.8900 ca         1 65P       0.132000
      4 C21          5.7070     1.5640     0.9340 ca         1 65P      -0.121000
      5 C28         -0.6310    -0.0050     0.1600 cp         1 65P       0.035000
      6 C05          0.6270    -2.0850     0.4540 ca         1 65P       0.418300
      7 N06          1.6830    -1.4360     1.0100 nb         1 65P      -0.734000
      8 C07          1.5970    -0.1000     1.1430 ca         1 65P       0.366500
      9 N08          2.5100     0.8170     1.6640 na         1 65P      -0.207400
     10 C12          4.9070     0.4160     1.1030 ca         1 65P      -0.098300
     11 F18          7.8550     0.4920    -1.8480 f          1 65P      -0.169000
     12 C19          6.7010     1.5910    -0.0600 ca         1 65P       0.117000
     13 F20          7.4620     2.7000    -0.2110 f          1 65P      -0.173000
     14 C23          2.0240     2.1370     1.6080 cc         1 65P      -0.186100
     15 C25          0.7750     1.9990     1.0330 cd         1 65P      -0.219200
     16 C27          0.4920     0.6130     0.7400 ca         1 65P      -0.134800
     17 C29         -1.8030     0.8170    -0.2680 cp         1 65P      -0.055000
     18 C30         -2.0400     0.9950    -1.6490 ca         1 65P      -0.044000
     19 C32         -3.1250     1.7540    -2.1020 ca         1 65P      -0.150000
     20 C34         -3.9900     2.3590    -1.1840 ca         1 65P       0.129100
     21 O35         -5.0440     3.0970    -1.6840 os         1 65P      -0.351100
     22 C36         -6.1230     3.4750    -0.8070 c6         1 65P       0.164600
     23 C39         -5.5640     4.0240     0.5140 c6         1 65P      -0.113400
     24 C42         -4.7030     2.9440     1.1970 c6         1 65P      -0.017100
     25 C45         -3.7630     2.2300     0.2090 ca         1 65P      -0.178300
     26 C46         -2.6750     1.4430     0.6730 ca         1 65P      -0.031300
     27 C47         -2.4510     1.2690     2.1800 c3         1 65P      -0.047800
     28 C51         -0.5590    -1.4220     0.0080 ca         1 65P      -0.074300
     29 C52         -1.7280    -2.2040    -0.6200 c3         1 65P       0.058600
     30 O54         -2.2840    -3.0970     0.3960 os         1 65P      -0.440000
     31 C55         -3.7220    -3.1490     0.5870 c3         1 65P       0.196000
     32 C56         -4.4220    -3.5470    -0.7390 c3         1 65P      -0.102433
     33 C60         -3.9400    -4.2410     1.6590 c3         1 65P      -0.102433
     34 C64         -4.2140    -1.7770     1.1160 c3         1 65P      -0.102433
     35 C68         -1.2970    -2.9200    -1.9530 c          1 65P       0.719000
     36 O69         -1.3980    -4.1360    -2.0560 o          1 65P      -0.713000
     37 O71         -0.8470    -2.2180    -2.8500 o          1 65P      -0.713000
     38 H1           4.4920    -1.5910     0.3860 ha         1 65P       0.156000
     39 H2           6.2590    -1.5360    -1.3710 ha         1 65P       0.139000
     40 H3           5.5590     2.4350     1.5670 ha         1 65P       0.124000
     41 H4          -0.0110    -4.1580     0.7140 hc         1 65P       0.054700
     42 H5           1.0260    -3.8800    -0.7010 hc         1 65P       0.054700
     43 H6           1.7170    -3.9200     0.9190 hc         1 65P       0.054700
     44 H7           4.1090     1.0470     3.0010 h1         1 65P       0.062700
     45 H8           3.7380    -0.6280     2.5840 h1         1 65P       0.062700
     46 H9           2.5760     3.0060     1.9540 h4         1 65P       0.196000
     47 H10          0.1000     2.8280     0.8280 ha         1 65P       0.201000
     48 H11         -1.3720     0.5310    -2.3730 ha         1 65P       0.176000
     49 H12         -3.2980     1.8730    -3.1690 ha         1 65P       0.126000
     50 H13         -6.7450     4.2300    -1.3080 h1         1 65P       0.044200
     51 H14         -6.7460     2.5910    -0.6090 h1         1 65P       0.044200
     52 H15         -4.9570     4.9170     0.3120 hc         1 65P       0.045700
     53 H16         -6.3820     4.3360     1.1770 hc         1 65P       0.045700
     54 H17         -4.1330     3.4120     2.0110 hc         1 65P       0.043700
     55 H18         -5.3630     2.1990     1.6650 hc         1 65P       0.043700
     56 H19         -3.3940     1.1000     2.7120 hc         1 65P       0.039367
     57 H20         -1.8140     0.4100     2.4170 hc         1 65P       0.039367
     58 H21         -1.9770     2.1590     2.6090 hc         1 65P       0.039367
     59 H22         -2.4920    -1.4900    -0.9370 h1         1 65P       0.037700
     60 H23         -4.0160    -4.4870    -1.1290 hc         1 65P       0.033256
     61 H24         -5.4960    -3.6900    -0.5730 hc         1 65P       0.033256
     62 H25         -4.3090    -2.7730    -1.5070 hc         1 65P       0.033256
     63 H26         -3.4250    -3.9810     2.5920 hc         1 65P       0.033256
     64 H27         -5.0070    -4.3600     1.8820 hc         1 65P       0.033256
     65 H28         -3.5560    -5.2090     1.3140 hc         1 65P       0.033256
     66 H29         -4.1890    -1.0060     0.3380 hc         1 65P       0.033256
     67 H30         -5.2520    -1.8510     1.4640 hc         1 65P       0.033256
     68 H31         -3.5990    -1.4440     1.9600 hc         1 65P       0.033256
     69 C09          3.8230     0.3860     2.1730 c3         1 65P       0.137900
     70 C01          0.8460    -3.5900     0.3400 c3         1 65P      -0.140400
@<TRIPOS>BOND
     1     1     2 ar  
     2     1    10 ar  
     3     1    38 1   
     4     2     3 ar  
     5     2    39 1   
     6     3    11 1   
     7     3    12 ar  
     8     4    10 ar  
     9     4    12 ar  
    10     4    40 1   
    11     5    16 ar  
    12     5    17 1   
    13     5    28 ar  
    14     6     7 ar  
    15     6    28 ar  
    16     6    70 1   
    17     7     8 ar  
    18     8     9 1   
    19     8    16 ar  
    20     9    14 1   
    21     9    69 1   
    22    10    69 1   
    23    12    13 1   
    24    14    15 2   
    25    14    46 1   
    26    15    16 1   
    27    15    47 1   
    28    17    18 ar  
    29    17    26 ar  
    30    18    19 ar  
    31    18    48 1   
    32    19    20 ar  
    33    19    49 1   
    34    20    21 1   
    35    20    25 ar  
    36    21    22 1   
    37    22    23 1   
    38    22    50 1   
    39    22    51 1   
    40    23    24 1   
    41    23    52 1   
    42    23    53 1   
    43    24    25 1   
    44    24    54 1   
    45    24    55 1   
    46    25    26 ar  
    47    26    27 1   
    48    27    56 1   
    49    27    57 1   
    50    27    58 1   
    51    28    29 1   
    52    29    30 1   
    53    29    35 1   
    54    29    59 1   
    55    30    31 1   
    56    31    32 1   
    57    31    33 1   
    58    31    34 1   
    59    32    60 1   
    60    32    61 1   
    61    32    62 1   
    62    33    63 1   
    63    33    64 1   
    64    33    65 1   
    65    34    66 1   
    66    34    67 1   
    67    34    68 1   
    68    35    36 1   
    69    35    37 1   
    70    41    70 1   
    71    42    70 1   
    72    43    70 1   
    73    44    69 1   
    74    45    69 1   
@<TRIPOS>SUBSTRUCTURE
     1 65P         1 TEMP              0 ****  ****    0 ROOT
