@<TRIPOS>MOLECULE
65Q
   35    37     1     0     0
SMALL
No Charge or Current Charge


@<TRIPOS>ATOM
      1 C4           2.8550    -0.4960    -1.1420 ca         1 65Q       0.228300
      2 C5           3.1020     0.3270    -0.0550 ca         1 65Q      -0.314800
      3 C6           3.9960    -0.1510     0.9150 ca         1 65Q       0.479900
      4 N1           4.5910    -1.3430     0.7950 nb         1 65Q      -0.357000
      5 N3           3.4380    -1.6980    -1.2890 nb         1 65Q      -0.265000
      6 FAD         -3.4370    -2.3610     0.6900 f          1 65Q      -0.108333
      7 CAX         -3.3460    -1.3280     1.5600 c3         1 65Q       0.514000
      8 FAE         -4.5480    -0.7090     1.6000 f          1 65Q      -0.108333
      9 FAF         -3.1400    -1.8630     2.7840 f          1 65Q      -0.108333
     10 CAQ         -2.2080     0.2770     0.0240 ca         1 65Q       0.100100
     11 CAJ         -1.0970     1.1180    -0.1630 ca         1 65Q      -0.099000
     12 CAH         -3.1860     0.1850    -0.9940 ca         1 65Q      -0.105000
     13 CAG         -3.0430     0.9340    -2.1750 ca         1 65Q      -0.094000
     14 CAI         -1.9290     1.7710    -2.3530 ca         1 65Q      -0.087000
     15 CAR         -0.9460     1.8590    -1.3530 ca         1 65Q      -0.106000
     16 CAU          1.5800     1.6080    -1.2960 cc         1 65Q      -0.064800
     17 SAO          1.6960     0.1610    -2.3200 ss         1 65Q      -0.085900
     18 C2           4.2780    -2.0420    -0.3030 ca         1 65Q       0.439900
     19 NAB          4.8800    -3.2460    -0.4190 nv         1 65Q      -1.057900
     20 NAC          4.3240     0.5160     2.0430 nv         1 65Q      -1.076900
     21 CAT          2.3470     1.5770    -0.1380 cd         1 65Q       0.060600
     22 CAA          2.4000     2.6760     0.9050 c3         1 65Q      -0.058900
     23 H1          -0.3560     1.1910     0.6270 ha         1 65Q       0.144000
     24 H2          -4.0590    -0.4510    -0.8910 ha         1 65Q       0.135000
     25 H3          -3.7990     0.8660    -2.9550 ha         1 65Q       0.122000
     26 H4          -1.8260     2.3460    -3.2710 ha         1 65Q       0.128000
     27 H5           4.5010    -3.9080    -1.0910 hn         1 65Q       0.498500
     28 H6           5.3300    -3.6380     0.4040 hn         1 65Q       0.498500
     29 H7           4.8070    -0.0100     2.7660 hn         1 65Q       0.502500
     30 H8           3.7050     1.2520     2.3630 hn         1 65Q       0.502500
     31 H9           3.4360     2.9660     1.1140 hc         1 65Q       0.054033
     32 H10          1.8850     3.5900     0.5950 hc         1 65Q       0.054033
     33 H11          1.9380     2.3460     1.8430 hc         1 65Q       0.054033
     34 SAN          0.4650     2.9390    -1.6070 ss         1 65Q      -0.011600
     35 OAM         -2.2790    -0.4210     1.2170 os         1 65Q      -0.406100
@<TRIPOS>BOND
     1     1     2 ar  
     2     1     5 ar  
     3     1    17 1   
     4     2     3 ar  
     5     2    21 1   
     6     3     4 ar  
     7     3    20 1   
     8     4    18 ar  
     9     5    18 ar  
    10     6     7 1   
    11     7     8 1   
    12     7     9 1   
    13     7    35 1   
    14    10    11 ar  
    15    10    12 ar  
    16    10    35 1   
    17    11    15 ar  
    18    11    23 1   
    19    12    13 ar  
    20    12    24 1   
    21    13    14 ar  
    22    13    25 1   
    23    14    15 ar  
    24    14    26 1   
    25    15    34 1   
    26    16    17 1   
    27    16    21 2   
    28    16    34 1   
    29    18    19 1   
    30    19    27 1   
    31    19    28 1   
    32    20    29 1   
    33    20    30 1   
    34    21    22 1   
    35    22    31 1   
    36    22    32 1   
    37    22    33 1   
@<TRIPOS>SUBSTRUCTURE
     1 65Q         1 TEMP              0 ****  ****    0 ROOT
