@<TRIPOS>MOLECULE
65Q
   35    37     1     0     0
SMALL
abcg2


@<TRIPOS>ATOM
      1 C4           2.9070    -0.8820    -0.9300 ca         1 65Q       0.228300
      2 C5           3.1020     0.1360     0.0080 ca         1 65Q      -0.314800
      3 C6           4.0440    -0.1890     1.0270 ca         1 65Q       0.479900
      4 N1           4.6490    -1.3700     1.0260 nb         1 65Q      -0.357000
      5 N3           3.5020    -2.0630    -0.9470 nb         1 65Q      -0.265000
      6 FAD         -1.6950    -2.0880     0.3250 f          1 65Q      -0.108333
      7 CAX         -2.7590    -1.5980     0.9620 c3         1 65Q       0.514000
      8 FAE         -3.8320    -1.9530     0.2510 f          1 65Q      -0.108333
      9 FAF         -2.8380    -2.1760     2.1500 f          1 65Q      -0.108333
     10 CAQ         -2.5560     0.5420     0.0420 ca         1 65Q       0.100100
     11 CAJ         -1.2830     0.8880    -0.3760 ca         1 65Q      -0.099000
     12 CAH         -3.6950     1.0320    -0.5720 ca         1 65Q      -0.105000
     13 CAG         -3.5400     1.8940    -1.6490 ca         1 65Q      -0.094000
     14 CAI         -2.2790     2.2470    -2.1020 ca         1 65Q      -0.087000
     15 CAR         -1.1490     1.7480    -1.4590 ca         1 65Q      -0.106000
     16 CAU          1.5320     1.1370    -1.3570 cc         1 65Q      -0.064800
     17 SAO          1.7530    -0.4150    -2.1290 ss         1 65Q      -0.085900
     18 C2           4.3640    -2.2450     0.0550 ca         1 65Q       0.439900
     19 NAB          5.0330    -3.4120     0.0830 nv         1 65Q      -1.057900
     20 NAC          4.3660     0.6500     2.0140 nv         1 65Q      -1.076900
     21 CAT          2.3000     1.3000    -0.2410 cd         1 65Q       0.060600
     22 CAA          2.2850     2.5290     0.6040 c3         1 65Q      -0.058900
     23 H1          -0.4150     0.5090     0.1460 ha         1 65Q       0.144000
     24 H2          -4.6790     0.7630    -0.2140 ha         1 65Q       0.135000
     25 H3          -4.4150     2.2880    -2.1480 ha         1 65Q       0.122000
     26 H4          -2.1780     2.9110    -2.9510 ha         1 65Q       0.128000
     27 H5           4.7330    -4.1610    -0.5150 hn         1 65Q       0.498500
     28 H6           5.5550    -3.6560     0.9060 hn         1 65Q       0.498500
     29 H7           5.0130     0.3490     2.7230 hn         1 65Q       0.502500
     30 H8           3.9470     1.5540     2.1220 hn         1 65Q       0.502500
     31 H9           3.2730     2.9920     0.6520 hc         1 65Q       0.054033
     32 H10          1.5980     3.2720     0.2040 hc         1 65Q       0.054033
     33 H11          1.9660     2.3040     1.6230 hc         1 65Q       0.054033
     34 SAN          0.4310     2.2820    -2.0630 ss         1 65Q      -0.011600
     35 OAM         -2.6840    -0.2760     1.1590 os         1 65Q      -0.406100
@<TRIPOS>BOND
     1     1     2 ar  
     2     1     5 ar  
     3     1    17 1   
     4     2     3 ar  
     5     2    21 1   
     6     3     4 ar  
     7     3    20 1   
     8     4    18 ar  
     9     5    18 ar  
    10     6     7 1   
    11     7     8 1   
    12     7     9 1   
    13     7    35 1   
    14    10    11 ar  
    15    10    12 ar  
    16    10    35 1   
    17    11    15 ar  
    18    11    23 1   
    19    12    13 ar  
    20    12    24 1   
    21    13    14 ar  
    22    13    25 1   
    23    14    15 ar  
    24    14    26 1   
    25    15    34 1   
    26    16    17 1   
    27    16    21 2   
    28    16    34 1   
    29    18    19 1   
    30    19    27 1   
    31    19    28 1   
    32    20    29 1   
    33    20    30 1   
    34    21    22 1   
    35    22    31 1   
    36    22    32 1   
    37    22    33 1   
@<TRIPOS>SUBSTRUCTURE
     1 65Q         1 TEMP              0 ****  ****    0 ROOT
