@<TRIPOS>MOLECULE
65R
   59    62     1     0     0
SMALL
No Charge or Current Charge


@<TRIPOS>ATOM
      1 C4          -1.2330    -0.4240    -1.6770 ca         1 65R      -0.128000
      2 C5          -2.2270    -0.9660    -0.8450 ca         1 65R       0.151100
      3 C6          -1.9610    -2.1450    -0.1170 ca         1 65R      -0.190000
      4 C8          -4.5200    -0.7800     0.0440 c3         1 65R       0.164600
      5 C10         -6.9400    -0.2040     0.7040 c3         1 65R      -0.070400
      6 C13         -9.9590     1.9020    -0.7770 c6         1 65R       0.160300
      7 C15        -10.4650     1.3470     1.5710 c6         1 65R       0.160300
      8 C21          4.1250     0.7500    -0.7650 cc         1 65R       0.539300
      9 C24          5.6380     2.1270     0.5250 cc         1 65R      -0.300000
     10 C26          7.3980     0.3120     0.7050 ca         1 65R      -0.075500
     11 C28          9.5360     0.5270     1.8580 ca         1 65R       0.327400
     12 C1          -0.7060    -2.7680    -0.2260 ca         1 65R      -0.070000
     13 C2           0.2840    -2.2200    -1.0600 ca         1 65R      -0.132000
     14 C3           0.0260    -1.0450    -1.7910 ca         1 65R      -0.042300
     15 O7          -3.4390    -0.3090    -0.7780 os         1 65R      -0.350100
     16 C9          -5.7000     0.1950    -0.1320 c3         1 65R      -0.081400
     17 C11         -8.1350     0.7960     0.6500 c6         1 65R      -0.059700
     18 C12         -8.7350     0.9520    -0.7780 c6         1 65R      -0.073400
     19 N14        -10.9900     1.4580     0.1900 n7         1 65R      -0.861400
     20 C16         -9.2600     0.3760     1.6370 c6         1 65R      -0.073400
     21 C18          1.9460     0.5700    -1.9170 c          1 65R       0.604100
     22 O19          1.5470     1.7020    -1.6890 o          1 65R      -0.552100
     23 N20          3.1650     0.1030    -1.4940 ns         1 65R      -0.478400
     24 N22          5.2180     0.0690    -0.4810 nd         1 65R      -0.707000
     25 C23          6.0920     0.8540     0.2600 cd         1 65R       0.360500
     26 S25          4.0620     2.3920    -0.1610 ss         1 65R       0.079600
     27 C27          8.3090     1.0850     1.4590 ca         1 65R      -0.144000
     28 N29          9.9070    -0.7380     1.5550 nb         1 65R      -0.662000
     29 C30          9.0420    -1.4860     0.8330 ca         1 65R       0.327400
     30 C31          7.7960    -1.0080     0.3940 ca         1 65R      -0.144000
     31 H1          -1.4440     0.4860    -2.2320 ha         1 65R       0.126000
     32 H2          -2.7070    -2.5890     0.5350 ha         1 65R       0.118000
     33 H3          -4.8290    -1.7880    -0.2630 h1         1 65R       0.034200
     34 H4          -4.2220    -0.8080     1.1000 h1         1 65R       0.034200
     35 H5          -7.2750    -1.1980     0.3810 hc         1 65R       0.039700
     36 H6          -6.6190    -0.3190     1.7480 hc         1 65R       0.039700
     37 H8         -10.3960     1.9410    -1.7860 h1         1 65R       0.028450
     38 H9         -10.1540     2.3420     1.9240 h1         1 65R       0.028450
     39 H10        -11.2620     0.9910     2.2390 h1         1 65R       0.028450
     40 H13          6.1160     2.9250     1.0730 h4         1 65R       0.161000
     41 H14         10.2460     1.1130     2.4400 h4         1 65R       0.017600
     42 H15         -0.4990    -3.6770     0.3350 ha         1 65R       0.113000
     43 H16          1.2510    -2.7120    -1.1350 ha         1 65R       0.114000
     44 H17         -5.3770     1.2020     0.1570 hc         1 65R       0.055700
     45 H18         -5.9660     0.2300    -1.1950 hc         1 65R       0.055700
     46 H19         -7.7430     1.7720     0.9710 hc         1 65R       0.043700
     47 H20         -9.0340    -0.0300    -1.1690 hc         1 65R       0.046450
     48 H21         -7.9820     1.3490    -1.4720 hc         1 65R       0.046450
     49 H22        -11.7640     2.1350     0.1830 hn         1 65R       0.409000
     50 H24         -8.8700     0.3500     2.6640 hc         1 65R       0.046450
     51 H25         -9.6000    -0.6420     1.4060 hc         1 65R       0.046450
     52 H26          3.3760    -0.8510    -1.7460 hn         1 65R       0.339500
     53 H27          8.0860     2.1080     1.7430 ha         1 65R       0.130500
     54 H28          9.3590    -2.5020     0.5980 h4         1 65R       0.017600
     55 H29          7.1540    -1.6680    -0.1830 ha         1 65R       0.130500
     56 C17          1.1010    -0.4460    -2.6910 c3         1 65R      -0.104100
     57 H7          -9.6310     2.9200    -0.5180 h1         1 65R       0.028450
     58 H11          1.7390    -1.2520    -3.0720 hc         1 65R       0.072700
     59 H12          0.6270     0.0660    -3.5370 hc         1 65R       0.072700
@<TRIPOS>BOND
     1     1     2 ar  
     2     1    14 ar  
     3     1    31 1   
     4     2     3 ar  
     5     2    15 1   
     6     3    12 ar  
     7     3    32 1   
     8     4    15 1   
     9     4    16 1   
    10     4    33 1   
    11     4    34 1   
    12     5    16 1   
    13     5    17 1   
    14     5    35 1   
    15     5    36 1   
    16     6    18 1   
    17     6    19 1   
    18     6    37 1   
    19     6    57 1   
    20     7    19 1   
    21     7    20 1   
    22     7    38 1   
    23     7    39 1   
    24     8    23 1   
    25     8    24 2   
    26     8    26 1   
    27     9    25 2   
    28     9    26 1   
    29     9    40 1   
    30    10    25 1   
    31    10    27 ar  
    32    10    30 ar  
    33    11    27 ar  
    34    11    28 ar  
    35    11    41 1   
    36    12    13 ar  
    37    12    42 1   
    38    13    14 ar  
    39    13    43 1   
    40    14    56 1   
    41    16    44 1   
    42    16    45 1   
    43    17    18 1   
    44    17    20 1   
    45    17    46 1   
    46    18    47 1   
    47    18    48 1   
    48    19    49 1   
    49    20    50 1   
    50    20    51 1   
    51    21    22 2   
    52    21    23 1   
    53    21    56 1   
    54    23    52 1   
    55    24    25 1   
    56    27    53 1   
    57    28    29 ar  
    58    29    30 ar  
    59    29    54 1   
    60    30    55 1   
    61    56    58 1   
    62    56    59 1   
@<TRIPOS>SUBSTRUCTURE
     1 65R         1 TEMP              0 ****  ****    0 ROOT
