@<TRIPOS>MOLECULE
65R
   59    62     1     0     0
SMALL
bcc


@<TRIPOS>ATOM
      1 C4          -1.3020    -1.3200    -0.4090 ca         1 65R      -0.146000
      2 C5          -2.5290    -1.5770     0.2040 ca         1 65R       0.151100
      3 C6          -2.6770    -2.7130     0.9970 ca         1 65R      -0.208000
      4 C8          -4.8100    -0.9380     0.4690 c3         1 65R       0.141400
      5 C10         -7.1620    -0.0740     0.4460 c3         1 65R      -0.070400
      6 C13         -9.2150     2.6170    -1.4680 c6         1 65R       0.160300
      7 C15        -10.4810     1.9180     0.4480 c6         1 65R       0.160300
      8 C21          4.2530    -0.1760     0.0420 cc         1 65R       0.539300
      9 C24          5.6900     1.1390     1.4470 cc         1 65R      -0.238400
     10 C26          7.5980     1.0120    -0.1960 ca         1 65R      -0.075500
     11 C28          9.7510     2.0390     0.0290 ca         1 65R       0.392700
     12 C1          -1.5950    -3.5710     1.1620 ca         1 65R      -0.088000
     13 C2          -0.3790    -3.3160     0.5530 ca         1 65R      -0.150000
     14 C3          -0.2300    -2.1820    -0.2430 ca         1 65R      -0.042300
     15 O7          -3.5060    -0.6790    -0.0270 os         1 65R      -0.326900
     16 C9          -5.7180     0.1960     0.0390 c3         1 65R      -0.081400
     17 C11         -8.1110     1.0960     0.2030 c6         1 65R      -0.059700
     18 C12         -8.1990     1.5020    -1.2680 c6         1 65R      -0.073400
     19 N14        -10.5170     2.2040    -0.9760 n7         1 65R      -0.806200
     20 C16         -9.5140     0.7760     0.7210 c6         1 65R      -0.073400
     21 C18          2.0090    -1.0820    -0.0310 c          1 65R       0.671100
     22 O19          1.7100    -0.6240     1.0520 o          1 65R      -0.552100
     23 N20          3.2490    -0.8880    -0.5630 ns         1 65R      -0.545400
     24 N22          5.4060    -0.0220    -0.5160 nd         1 65R      -0.707000
     25 C23          6.2390     0.7270     0.2730 cd         1 65R       0.425800
     26 S25          4.0720     0.5800     1.5900 ss         1 65R      -0.065300
     27 C27          8.4820     1.8090     0.5310 ca         1 65R      -0.227300
     28 N29         10.1930     1.5410    -1.1210 nb         1 65R      -0.662000
     29 C30          9.3510     0.7830    -1.8130 ca         1 65R       0.392700
     30 C31          8.0600     0.4910    -1.4030 ca         1 65R      -0.227300
     31 H1          -1.2010    -0.4360    -1.0300 ha         1 65R       0.144000
     32 H2          -3.6140    -2.9460     1.4840 ha         1 65R       0.136000
     33 H3          -5.1790    -1.8930     0.0770 h1         1 65R       0.034200
     34 H4          -4.7980    -1.0140     1.5620 h1         1 65R       0.034200
     35 H5          -7.5340    -0.9570    -0.0880 hc         1 65R       0.039700
     36 H6          -7.1950    -0.3300     1.5110 hc         1 65R       0.039700
     37 H8          -9.3000     2.8610    -2.5290 h1         1 65R       0.028450
     38 H9         -10.1730     2.7930     1.0450 h1         1 65R       0.028450
     39 H10        -11.4860     1.6470     0.7800 h1         1 65R       0.028450
     40 H13          6.1360     1.7290     2.2330 h4         1 65R       0.179000
     41 H14         10.4430     2.6590     0.5880 h4         1 65R       0.017600
     42 H15         -1.7160    -4.4530     1.7780 ha         1 65R       0.131000
     43 H16          0.4510    -3.9990     0.6890 ha         1 65R       0.132000
     44 H17         -5.3740     1.1300     0.4930 hc         1 65R       0.055700
     45 H18         -5.6460     0.3210    -1.0450 hc         1 65R       0.055700
     46 H19         -7.7360     1.9610     0.7680 hc         1 65R       0.043700
     47 H20         -8.4920     0.6320    -1.8670 hc         1 65R       0.046450
     48 H21         -7.2280     1.8340    -1.6410 hc         1 65R       0.046450
     49 H22        -11.1930     2.9350    -1.1550 hn         1 65R       0.353800
     50 H24         -9.4830     0.5670     1.7940 hc         1 65R       0.046450
     51 H25         -9.8810    -0.1320     0.2290 hc         1 65R       0.046450
     52 H26          3.4780    -1.2870    -1.4630 hn         1 65R       0.339500
     53 H27          8.2010     2.2550     1.4760 ha         1 65R       0.148500
     54 H28          9.7190     0.3800    -2.7500 h4         1 65R       0.017600
     55 H29          7.4280    -0.1360    -2.0160 ha         1 65R       0.148500
     56 C17          1.0810    -1.8900    -0.9080 c3         1 65R      -0.104100
     57 H7          -8.8450     3.5240    -0.9620 h1         1 65R       0.028450
     58 H11          1.5880    -2.8160    -1.1910 hc         1 65R       0.072700
     59 H12          0.9310    -1.3340    -1.8390 hc         1 65R       0.072700
@<TRIPOS>BOND
     1     1     2 ar  
     2     1    14 ar  
     3     1    31 1   
     4     2     3 ar  
     5     2    15 1   
     6     3    12 ar  
     7     3    32 1   
     8     4    15 1   
     9     4    16 1   
    10     4    33 1   
    11     4    34 1   
    12     5    16 1   
    13     5    17 1   
    14     5    35 1   
    15     5    36 1   
    16     6    18 1   
    17     6    19 1   
    18     6    37 1   
    19     6    57 1   
    20     7    19 1   
    21     7    20 1   
    22     7    38 1   
    23     7    39 1   
    24     8    23 1   
    25     8    24 2   
    26     8    26 1   
    27     9    25 2   
    28     9    26 1   
    29     9    40 1   
    30    10    25 1   
    31    10    27 ar  
    32    10    30 ar  
    33    11    27 ar  
    34    11    28 ar  
    35    11    41 1   
    36    12    13 ar  
    37    12    42 1   
    38    13    14 ar  
    39    13    43 1   
    40    14    56 1   
    41    16    44 1   
    42    16    45 1   
    43    17    18 1   
    44    17    20 1   
    45    17    46 1   
    46    18    47 1   
    47    18    48 1   
    48    19    49 1   
    49    20    50 1   
    50    20    51 1   
    51    21    22 2   
    52    21    23 1   
    53    21    56 1   
    54    23    52 1   
    55    24    25 1   
    56    27    53 1   
    57    28    29 ar  
    58    29    30 ar  
    59    29    54 1   
    60    30    55 1   
    61    56    58 1   
    62    56    59 1   
@<TRIPOS>SUBSTRUCTURE
     1 65R         1 TEMP              0 ****  ****    0 ROOT
