@<TRIPOS>MOLECULE
65S
    9     8     1     0     0
SMALL
bcc


@<TRIPOS>ATOM
      1 O01         -2.1450    -0.6710    -0.0130 o          1 65S      -0.801800
      2 C02         -1.2540     0.1860    -0.0140 c          1 65S       0.859600
      3 C03          0.2030    -0.3400     0.0180 c          1 65S       0.401100
      4 C04          1.2720     0.7250     0.0110 c3         1 65S       0.041900
      5 F05          2.5260     0.1410     0.0420 f          1 65S      -0.277300
      6 O06          0.4780    -1.5120     0.0490 o          1 65S      -0.537100
      7 O07         -1.3460     1.4250    -0.0380 o          1 65S      -0.801800
      8 H2           1.1870     1.3390    -0.8880 h1         1 65S       0.057200
      9 H3           1.1600     1.3790     0.8780 h1         1 65S       0.057200
@<TRIPOS>BOND
     1     1     2 1   
     2     2     3 1   
     3     2     7 1   
     4     3     4 1   
     5     3     6 2   
     6     4     5 1   
     7     4     8 1   
     8     4     9 1   
@<TRIPOS>SUBSTRUCTURE
     1 65S         1 TEMP              0 ****  ****    0 ROOT
