@<TRIPOS>MOLECULE
65S
    9     8     1     0     0
SMALL
No Charge or Current Charge


@<TRIPOS>ATOM
      1 O01         -2.2140    -0.6110    -0.0120 o          1 65S      -0.696500
      2 C02         -1.2860     0.1960    -0.0150 c          1 65S       0.649000
      3 C03          0.2270    -0.3650     0.0190 c          1 65S       0.401100
      4 C04          1.3300     0.7180     0.0120 c3         1 65S       0.060600
      5 F05          2.5930     0.2070     0.0420 f          1 65S      -0.296000
      6 O06          0.4890    -1.5740     0.0490 o          1 65S      -0.537100
      7 O07         -1.4600     1.4110    -0.0440 o          1 65S      -0.696500
      8 H2           1.2150     1.3260    -0.8930 h1         1 65S       0.057200
      9 H3           1.1890     1.3640     0.8870 h1         1 65S       0.057200
@<TRIPOS>BOND
     1     1     2 1   
     2     2     3 1   
     3     2     7 1   
     4     3     4 1   
     5     3     6 2   
     6     4     5 1   
     7     4     8 1   
     8     4     9 1   
@<TRIPOS>SUBSTRUCTURE
     1 65S         1 TEMP              0 ****  ****    0 ROOT
