@<TRIPOS>MOLECULE
65T
   26    26     1     0     0
SMALL
abcg2


@<TRIPOS>ATOM
      1 OXY         -0.4330     9.2270    13.1010 o          1 65T      -0.699000
      2 C           -0.6040     9.2400    14.3300 c          1 65T       0.631700
      3 O           -0.1330    10.0220    15.1750 o          1 65T      -0.699000
      4 CA          -1.5150     8.1740    14.9250 ce         1 65T       0.306200
      5 N3          -2.1550     7.3830    14.1710 n2         1 65T      -0.347700
      6 O4          -2.9260     6.4950    14.8730 os         1 65T      -0.358000
      7 C11         -3.7130     5.7250    13.9820 c3         1 65T       0.211900
      8 C01         -4.2850     4.5710    14.7530 ca         1 65T      -0.011300
      9 C02         -5.6570     4.3770    14.8220 ca         1 65T      -0.118000
     10 C03         -6.1910     3.2950    15.5100 ca         1 65T      -0.021000
     11 C04         -5.3310     2.4090    16.1360 ca         1 65T      -0.275500
     12 S07         -5.9880     1.0260    17.0270 sy         1 65T       1.125600
     13 NP0         -5.6450    -0.2090    15.9820 n8         1 65T      -1.002100
     14 O09         -7.4170     1.2420    17.1970 o          1 65T      -0.555500
     15 O08         -5.1810     0.7780    18.2120 o          1 65T      -0.555500
     16 C05         -3.9530     2.5880    16.0880 ca         1 65T      -0.021000
     17 C06         -3.4370     3.6680    15.3970 ca         1 65T      -0.118000
     18 H02         -6.3260     5.0760    14.3350 ha         1 65T       0.127000
     19 H03         -7.2630     3.1600    15.5530 ha         1 65T       0.127500
     20 HP01        -5.6780    -1.1120    16.4480 hn         1 65T       0.466500
     21 HP02        -6.2520    -0.2130    15.1670 hn         1 65T       0.466500
     22 H05         -3.2840     1.8920    16.5780 ha         1 65T       0.127500
     23 H06         -2.3640     3.8040    15.3550 ha         1 65T       0.127000
     24 H2          -1.6090     8.1240    16.0110 h4         1 65T      -0.022200
     25 H3          -3.0950     5.3540    13.1590 h1         1 65T       0.042700
     26 H4          -4.5160     6.3290    13.5480 h1         1 65T       0.042700
@<TRIPOS>BOND
     1     1     2 1   
     2     2     3 1   
     3     2     4 1   
     4     4     5 2   
     5     4    24 1   
     6     5     6 1   
     7     6     7 1   
     8     7     8 1   
     9     7    25 1   
    10     7    26 1   
    11     8     9 ar  
    12     8    17 ar  
    13     9    10 ar  
    14     9    18 1   
    15    10    11 ar  
    16    10    19 1   
    17    11    12 1   
    18    11    16 ar  
    19    12    13 1   
    20    12    14 2   
    21    12    15 2   
    22    13    20 1   
    23    13    21 1   
    24    16    17 ar  
    25    16    22 1   
    26    17    23 1   
@<TRIPOS>SUBSTRUCTURE
     1 65T         1 TEMP              0 ****  ****    0 ROOT
