@<TRIPOS>MOLECULE
65T
   26    26     1     0     0
SMALL
No Charge or Current Charge


@<TRIPOS>ATOM
      1 OXY         -0.8890     9.7820    13.0990 o          1 65T      -0.699000
      2 C           -1.1070     9.7100    14.3070 c          1 65T       0.631700
      3 O           -0.7700    10.6030    15.0790 o          1 65T      -0.699000
      4 CA          -1.8160     8.4860    14.8860 ce         1 65T       0.306200
      5 N3          -2.2070     7.4930    14.1320 n2         1 65T      -0.347700
      6 O4          -2.8430     6.4520    14.8420 os         1 65T      -0.358000
      7 C11         -3.2430     5.3980    13.9410 c3         1 65T       0.211900
      8 C01         -3.9240     4.2950    14.7440 ca         1 65T      -0.011300
      9 C02         -5.3150     4.3290    14.9620 ca         1 65T      -0.118000
     10 C03         -5.9480     3.3130    15.6980 ca         1 65T      -0.021000
     11 C04         -5.1890     2.2470    16.2270 ca         1 65T      -0.275500
     12 S07         -5.9890     0.9410    17.1670 sy         1 65T       1.125600
     13 NP0         -6.3120    -0.1590    16.0000 n8         1 65T      -1.002100
     14 O09         -7.3120     1.3770    17.6050 o          1 65T      -0.555500
     15 O08         -5.0310     0.2840    18.0570 o          1 65T      -0.555500
     16 C05         -3.7960     2.2100    16.0110 ca         1 65T      -0.021000
     17 C06         -3.1700     3.2300    15.2740 ca         1 65T      -0.118000
     18 H02         -5.9080     5.1480    14.5610 ha         1 65T       0.127000
     19 H03         -7.0240     3.3600    15.8560 ha         1 65T       0.127500
     20 HP01        -7.3100    -0.2970    16.1390 hn         1 65T       0.466500
     21 HP02        -6.2580     0.4030    15.1550 hn         1 65T       0.466500
     22 H05         -3.1950     1.3950    16.4110 ha         1 65T       0.127500
     23 H06         -2.0950     3.1940    15.1140 ha         1 65T       0.127000
     24 H2          -1.9860     8.4700    15.9670 h4         1 65T      -0.022200
     25 H3          -2.3720     4.9820    13.4180 h1         1 65T       0.042700
     26 H4          -3.9400     5.7790    13.1830 h1         1 65T       0.042700
@<TRIPOS>BOND
     1     1     2 1   
     2     2     3 1   
     3     2     4 1   
     4     4     5 2   
     5     4    24 1   
     6     5     6 1   
     7     6     7 1   
     8     7     8 1   
     9     7    25 1   
    10     7    26 1   
    11     8     9 ar  
    12     8    17 ar  
    13     9    10 ar  
    14     9    18 1   
    15    10    11 ar  
    16    10    19 1   
    17    11    12 1   
    18    11    16 ar  
    19    12    13 1   
    20    12    14 2   
    21    12    15 2   
    22    13    20 1   
    23    13    21 1   
    24    16    17 ar  
    25    16    22 1   
    26    17    23 1   
@<TRIPOS>SUBSTRUCTURE
     1 65T         1 TEMP              0 ****  ****    0 ROOT
