@<TRIPOS>MOLECULE
65U
   47    50     1     0     0
SMALL
No Charge or Current Charge


@<TRIPOS>ATOM
      1 C33          5.9700     0.2220    -0.0530 ca         1 65U      -0.092300
      2 C38          7.1580    -0.6920     2.3350 ca         1 65U      -0.102000
      3 C40          6.8710    -1.5980     1.3010 ca         1 65U      -0.108500
      4 C42          6.2770    -1.1430     0.1100 ca         1 65U      -0.093500
      5 C36          6.8500     0.6700     2.1780 ca         1 65U      -0.108500
      6 C13         -5.0040    -0.3550     2.4070 ca         1 65U      -0.101000
      7 C15         -4.6210     0.0780     1.1280 ca         1 65U       0.069100
      8 C11         -5.7010    -1.5640     2.5560 ca         1 65U      -0.111000
      9 C17         -2.5350     1.2660     0.7460 c3         1 65U       0.157600
     10 C20         -2.1710     0.2300    -0.3480 c3         1 65U      -0.002300
     11 C30          5.3140     0.7120    -1.3380 c3         1 65U      -0.066400
     12 C29          3.8110     0.6670    -1.2910 cc         1 65U       0.173300
     13 C27          2.9430     0.3080    -0.3090 cd         1 65U      -0.196000
     14 C26          1.6440     0.4660    -0.8350 cd         1 65U       0.225500
     15 N05         -4.4770    -0.2730    -1.3240 n          1 65U      -0.222400
     16 C06         -4.9920    -0.6450    -0.0270 ca         1 65U      -0.054000
     17 C07         -5.6270    -1.8940     0.1430 ca         1 65U      -0.117000
     18 C09         -6.0000    -2.3400     1.4240 ca         1 65U      -0.096000
     19 O16         -3.9500     1.2660     0.9940 os         1 65U      -0.344100
     20 N22         -0.7790     0.4170    -0.8330 ns         1 65U      -0.474900
     21 C24          0.3670     0.1840    -0.0930 c          1 65U       0.533600
     22 O25          0.3150    -0.2210     1.0630 o          1 65U      -0.578100
     23 C34          6.2570     1.1260     0.9880 ca         1 65U      -0.093500
     24 O44          3.0880     1.0380    -2.3960 os         1 65U      -0.051700
     25 N45          1.6810     0.9050    -2.0910 nc         1 65U      -0.359300
     26 C46         -3.1700     0.2390    -1.5390 c          1 65U       0.557000
     27 O47         -2.8150     0.6250    -2.6500 o          1 65U      -0.532000
     28 H39          7.6170    -1.0440     3.2570 ha         1 65U       0.114000
     29 H41          7.1060    -2.6540     1.4210 ha         1 65U       0.115000
     30 H43          6.0550    -1.8530    -0.6840 ha         1 65U       0.114000
     31 H37          7.0710     1.3730     2.9790 ha         1 65U       0.115000
     32 H12         -5.9920    -1.9090     3.5470 ha         1 65U       0.120000
     33 H19         -1.9880     1.0230     1.6660 h1         1 65U       0.064200
     34 H18         -2.2170     2.2660     0.4240 h1         1 65U       0.064200
     35 H21         -2.2380    -0.7710     0.0970 h1         1 65U       0.098700
     36 H32          5.6320     1.7400    -1.5510 hc         1 65U       0.071700
     37 H31          5.6620     0.1130    -2.1870 hc         1 65U       0.071700
     38 H28          3.2000    -0.0330     0.6870 ha         1 65U       0.170000
     39 H04         -5.3450     0.4270    -3.1320 h1         1 65U       0.048033
     40 H03         -4.9860    -1.3260    -3.0910 h1         1 65U       0.048033
     41 H02         -6.3810    -0.6670    -2.1880 h1         1 65U       0.048033
     42 H08         -5.8380    -2.5270    -0.7160 ha         1 65U       0.126000
     43 H10         -6.5120    -3.2930     1.5400 ha         1 65U       0.120000
     44 H23         -0.6390     0.7380    -1.7890 hn         1 65U       0.342500
     45 H35          6.0190     2.1810     0.8770 ha         1 65U       0.114000
     46 H14         -4.7510     0.2410     3.2810 ha         1 65U       0.129000
     47 C01         -5.3490    -0.4730    -2.5040 c3         1 65U       0.096300
@<TRIPOS>BOND
     1     1     4 ar  
     2     1    11 1   
     3     1    23 ar  
     4     2     3 ar  
     5     2     5 ar  
     6     2    28 1   
     7     3     4 ar  
     8     3    29 1   
     9     4    30 1   
    10     5    23 ar  
    11     5    31 1   
    12     6     7 ar  
    13     6     8 ar  
    14     6    46 1   
    15     7    16 ar  
    16     7    19 1   
    17     8    18 ar  
    18     8    32 1   
    19     9    10 1   
    20     9    19 1   
    21     9    33 1   
    22     9    34 1   
    23    10    20 1   
    24    10    26 1   
    25    10    35 1   
    26    11    12 1   
    27    11    36 1   
    28    11    37 1   
    29    12    13 2   
    30    12    24 1   
    31    13    14 1   
    32    13    38 1   
    33    14    21 1   
    34    14    25 2   
    35    15    16 1   
    36    15    26 1   
    37    15    47 1   
    38    16    17 ar  
    39    17    18 ar  
    40    17    42 1   
    41    18    43 1   
    42    20    21 1   
    43    20    44 1   
    44    21    22 2   
    45    23    45 1   
    46    24    25 1   
    47    26    27 2   
    48    39    47 1   
    49    40    47 1   
    50    41    47 1   
@<TRIPOS>SUBSTRUCTURE
     1 65U         1 TEMP              0 ****  ****    0 ROOT
