@<TRIPOS>MOLECULE
65U
   47    50     1     0     0
SMALL
bcc


@<TRIPOS>ATOM
      1 C33          5.9070     0.1570     0.4660 ca         1 65U      -0.092300
      2 C38          7.5230    -1.3670    -1.2260 ca         1 65U      -0.120000
      3 C40          7.4230     0.0060    -1.4070 ca         1 65U      -0.126500
      4 C42          6.6170     0.7620    -0.5650 ca         1 65U      -0.111500
      5 C36          6.8140    -1.9790    -0.2000 ca         1 65U      -0.126500
      6 C13         -5.9680     1.3310    -0.2290 ca         1 65U      -0.119000
      7 C15         -4.9340     0.4750    -0.5740 ca         1 65U       0.069100
      8 C11         -6.8170     1.0020     0.8190 ca         1 65U      -0.129000
      9 C17         -2.8490     1.2420    -1.3150 c3         1 65U       0.134400
     10 C20         -2.1710     0.3740    -0.2480 c3         1 65U      -0.002300
     11 C30          5.0160     0.9740     1.3700 c3         1 65U      -0.066400
     12 C29          3.5870     0.8840     0.9750 cc         1 65U       0.283000
     13 C27          2.4720     0.4450     1.6050 cd         1 65U      -0.344600
     14 C26          1.4550     0.6450     0.6450 cd         1 65U       0.290800
     15 N05         -3.6690    -1.5690    -0.2300 n          1 65U      -0.382000
     16 C06         -4.7170    -0.7030     0.1450 ca         1 65U       0.038600
     17 C07         -5.5670    -1.0180     1.2000 ca         1 65U      -0.135000
     18 C09         -6.6160    -0.1720     1.5310 ca         1 65U      -0.114000
     19 O16         -4.1360     0.7550    -1.6420 os         1 65U      -0.320900
     20 N22         -0.7700     0.6730    -0.2380 ns         1 65U      -0.541900
     21 C24          0.0080     0.3420     0.8040 c          1 65U       0.600600
     22 O25         -0.4060    -0.1530     1.8370 o          1 65U      -0.578100
     23 C34          6.0100    -1.2210     0.6390 ca         1 65U      -0.111500
     24 O44          3.2570     1.3020    -0.2550 os         1 65U      -0.096100
     25 N45          1.9310     1.1530    -0.4550 nc         1 65U      -0.359300
     26 C46         -2.4210    -1.1160    -0.5060 c          1 65U       0.699500
     27 O47         -1.5380    -1.8520    -0.9010 o          1 65U      -0.607500
     28 H39          8.1530    -1.9570    -1.8790 ha         1 65U       0.132000
     29 H41          7.9720     0.4920    -2.2030 ha         1 65U       0.133000
     30 H43          6.5460     1.8340    -0.7090 ha         1 65U       0.132000
     31 H37          6.8900    -3.0480    -0.0500 ha         1 65U       0.133000
     32 H12         -7.6290     1.6670     1.0810 ha         1 65U       0.138000
     33 H19         -2.8940     2.2770    -0.9640 h1         1 65U       0.064200
     34 H18         -2.2740     1.2160    -2.2420 h1         1 65U       0.064200
     35 H21         -2.5820     0.6300     0.7330 h1         1 65U       0.098700
     36 H32          5.0980     0.6330     2.4030 hc         1 65U       0.071700
     37 H31          5.3280     2.0220     1.3600 hc         1 65U       0.071700
     38 H28          2.3860     0.0420     2.6000 ha         1 65U       0.188000
     39 H04         -3.6790    -3.3250    -1.3900 h1         1 65U       0.048033
     40 H03         -3.3520    -3.5820     0.3310 h1         1 65U       0.048033
     41 H02         -4.9840    -3.1830    -0.2160 h1         1 65U       0.048033
     42 H08         -5.4080    -1.9250     1.7680 ha         1 65U       0.144000
     43 H10         -7.2710    -0.4320     2.3510 ha         1 65U       0.138000
     44 H23         -0.3290     0.9710    -1.0960 hn         1 65U       0.342500
     45 H35          5.4620    -1.7050     1.4400 ha         1 65U       0.132000
     46 H14         -6.1160     2.2410    -0.7960 ha         1 65U       0.147000
     47 C01         -3.9280    -2.9950    -0.3830 c3         1 65U       0.096300
@<TRIPOS>BOND
     1     1     4 ar  
     2     1    11 1   
     3     1    23 ar  
     4     2     3 ar  
     5     2     5 ar  
     6     2    28 1   
     7     3     4 ar  
     8     3    29 1   
     9     4    30 1   
    10     5    23 ar  
    11     5    31 1   
    12     6     7 ar  
    13     6     8 ar  
    14     6    46 1   
    15     7    16 ar  
    16     7    19 1   
    17     8    18 ar  
    18     8    32 1   
    19     9    10 1   
    20     9    19 1   
    21     9    33 1   
    22     9    34 1   
    23    10    20 1   
    24    10    26 1   
    25    10    35 1   
    26    11    12 1   
    27    11    36 1   
    28    11    37 1   
    29    12    13 2   
    30    12    24 1   
    31    13    14 1   
    32    13    38 1   
    33    14    21 1   
    34    14    25 2   
    35    15    16 1   
    36    15    26 1   
    37    15    47 1   
    38    16    17 ar  
    39    17    18 ar  
    40    17    42 1   
    41    18    43 1   
    42    20    21 1   
    43    20    44 1   
    44    21    22 2   
    45    23    45 1   
    46    24    25 1   
    47    26    27 2   
    48    39    47 1   
    49    40    47 1   
    50    41    47 1   
@<TRIPOS>SUBSTRUCTURE
     1 65U         1 TEMP              0 ****  ****    0 ROOT
