@<TRIPOS>MOLECULE
65V
   47    51     1     0     0
SMALL
No Charge or Current Charge


@<TRIPOS>ATOM
      1 C2           5.8210     0.1880    -0.0610 ca         1 65V      -0.001200
      2 C3           6.7710     1.1090     0.4310 ca         1 65V      -0.100000
      3 C4           8.1010     0.7120     0.6400 ca         1 65V       0.148000
      4 C5           8.5050    -0.6120     0.3600 ca         1 65V       0.102100
      5 C6           7.5630    -1.5320    -0.1310 ca         1 65V      -0.175000
      6 C7           6.2290    -1.1350    -0.3410 ca         1 65V      -0.090000
      7 O8           9.8000    -1.0100     0.5600 oh         1 65V      -0.511100
      8 F10          8.9920     1.6150     1.1150 f          1 65V      -0.160000
      9 N12          4.4930     0.5800    -0.2690 na         1 65V       0.211000
     10 C13          3.4020    -0.1990    -0.0060 cc         1 65V      -0.156000
     11 C14          2.3720     0.6030    -0.4300 cd         1 65V       0.154000
     12 N15          2.8880     1.7960    -0.9270 nd         1 65V      -0.341000
     13 N16          4.1940     1.7770    -0.8380 nc         1 65V      -0.201800
     14 C17          0.9220     0.2800    -0.3810 ca         1 65V       0.346000
     15 C18         -0.0430     1.1920    -0.8500 ca         1 65V      -0.166000
     16 C19         -1.4020     0.8540    -0.7890 ca         1 65V      -0.029000
     17 C20         -1.7620    -0.3990    -0.2560 ca         1 65V      -0.105000
     18 C21         -0.7390    -1.2670     0.1970 ca         1 65V       0.302000
     19 N22          0.5700    -0.9280     0.1320 nb         1 65V      -0.696000
     20 C23         -3.1150    -0.7920    -0.1640 ca         1 65V       0.185100
     21 C24         -3.4470    -2.0550     0.3590 ca         1 65V      -0.200000
     22 C25         -2.4380    -2.9170     0.8100 ca         1 65V      -0.055000
     23 C26         -1.0940    -2.5190     0.7280 ca         1 65V      -0.149000
     24 O27         -4.1100     0.0470    -0.6210 os         1 65V      -0.252200
     25 C28         -5.2880     0.2520     0.0610 ca         1 65V       0.038100
     26 C29         -5.3190     0.2820     1.4680 ca         1 65V      -0.149000
     27 C30         -6.5330     0.5070     2.1340 ca         1 65V      -0.138000
     28 C31         -7.7150     0.7110     1.4010 ca         1 65V      -0.082000
     29 C32         -7.6990     0.6980    -0.0140 ca         1 65V      -0.128600
     30 C33         -6.4670     0.4690    -0.6730 ca         1 65V      -0.080000
     31 C34         -8.9740     0.9250    -0.8100 c          1 65V       0.713600
     32 O35        -10.0180     1.1190    -0.2020 o          1 65V      -0.713500
     33 O36         -8.9130     0.9050    -2.0320 o          1 65V      -0.713500
     34 H1           6.4810     2.1320     0.6570 ha         1 65V       0.163000
     35 H2           7.8570    -2.5550    -0.3550 ha         1 65V       0.122000
     36 H3           5.5150    -1.8590    -0.7300 ha         1 65V       0.134000
     37 H4           9.8820    -1.9560     0.3100 ho         1 65V       0.470000
     38 H5           3.4310    -1.1840     0.4370 h4         1 65V       0.182000
     39 H6           0.2580     2.1530    -1.2570 ha         1 65V       0.138000
     40 H7          -2.1530     1.5560    -1.1480 ha         1 65V       0.140000
     41 H8          -4.4880    -2.3660     0.4140 ha         1 65V       0.145000
     42 H9          -2.6940    -3.8920     1.2190 ha         1 65V       0.109000
     43 H10         -0.3160    -3.1920     1.0780 ha         1 65V       0.119000
     44 H11         -4.4080     0.1360     2.0440 ha         1 65V       0.101000
     45 H12         -6.5600     0.5280     3.2210 ha         1 65V       0.092000
     46 H13         -8.6450     0.8850     1.9380 ha         1 65V       0.132000
     47 H14         -6.4190     0.4540    -1.7590 ha         1 65V       0.145000
@<TRIPOS>BOND
     1     1     2 ar  
     2     1     6 ar  
     3     1     9 1   
     4     2     3 ar  
     5     2    34 1   
     6     3     4 ar  
     7     3     8 1   
     8     4     5 ar  
     9     4     7 1   
    10     5     6 ar  
    11     5    35 1   
    12     6    36 1   
    13     7    37 1   
    14     9    10 1   
    15     9    13 1   
    16    10    11 2   
    17    10    38 1   
    18    11    12 1   
    19    11    14 1   
    20    12    13 2   
    21    14    15 ar  
    22    14    19 ar  
    23    15    16 ar  
    24    15    39 1   
    25    16    17 ar  
    26    16    40 1   
    27    17    18 ar  
    28    17    20 ar  
    29    18    19 ar  
    30    18    23 ar  
    31    20    21 ar  
    32    20    24 1   
    33    21    22 ar  
    34    21    41 1   
    35    22    23 ar  
    36    22    42 1   
    37    23    43 1   
    38    24    25 1   
    39    25    26 ar  
    40    25    30 ar  
    41    26    27 ar  
    42    26    44 1   
    43    27    28 ar  
    44    27    45 1   
    45    28    29 ar  
    46    28    46 1   
    47    29    30 ar  
    48    29    31 1   
    49    30    47 1   
    50    31    32 1   
    51    31    33 1   
@<TRIPOS>SUBSTRUCTURE
     1 65V         1 TEMP              0 ****  ****    0 ROOT
