@<TRIPOS>MOLECULE
65V
   47    51     1     0     0
SMALL
bcc


@<TRIPOS>ATOM
      1 C2           5.8670     0.0140    -0.1930 ca         1 65V      -0.001200
      2 C3           6.8490     0.9270     0.1730 ca         1 65V      -0.118000
      3 C4           8.1500     0.4950     0.2620 ca         1 65V       0.112900
      4 C5           8.5180    -0.8280     0.0140 ca         1 65V       0.102100
      5 C6           7.5160    -1.7190    -0.3480 ca         1 65V      -0.193000
      6 C7           6.1980    -1.3040    -0.4610 ca         1 65V      -0.108000
      7 O8           9.8110    -1.1510     0.1420 oh         1 65V      -0.472100
      8 F10          9.1070     1.3620     0.6160 f          1 65V      -0.124900
      9 N12          4.5240     0.4400    -0.2810 na         1 65V       0.160300
     10 C13          3.4070    -0.2630    -0.0280 cc         1 65V      -0.188600
     11 C14          2.3930     0.6330    -0.2600 cd         1 65V       0.219300
     12 N15          2.9540     1.8070    -0.6320 nd         1 65V      -0.341000
     13 N16          4.2290     1.6850    -0.6460 nc         1 65V      -0.201800
     14 C17          0.9540     0.4360    -0.1340 ca         1 65V       0.411300
     15 C18          0.0640     1.5170    -0.3360 ca         1 65V      -0.249300
     16 C19         -1.2750     1.2980    -0.1970 ca         1 65V      -0.047000
     17 C20         -1.7380     0.0090     0.1390 ca         1 65V      -0.170300
     18 C21         -0.7690    -1.0110     0.3170 ca         1 65V       0.432600
     19 N22          0.5520    -0.7710     0.1770 nb         1 65V      -0.696000
     20 C23         -3.1120    -0.3090     0.3080 ca         1 65V       0.185100
     21 C24         -3.4960    -1.5850     0.6330 ca         1 65V      -0.218000
     22 C25         -2.5180    -2.5850     0.8030 ca         1 65V      -0.073000
     23 C26         -1.1860    -2.3200     0.6530 ca         1 65V      -0.232300
     24 O27         -3.9690     0.7210     0.1150 os         1 65V      -0.252200
     25 C28         -5.2990     0.5610     0.4400 ca         1 65V       0.038100
     26 C29         -5.6940     0.6430     1.7670 ca         1 65V      -0.167000
     27 C30         -7.0440     0.5290     2.0660 ca         1 65V      -0.156000
     28 C31         -7.9750     0.3380     1.0540 ca         1 65V      -0.100000
     29 C32         -7.5740     0.2610    -0.2760 ca         1 65V      -0.128600
     30 C33         -6.2180     0.3710    -0.5760 ca         1 65V      -0.098000
     31 C34         -8.5930     0.0600    -1.3940 c          1 65V       0.924200
     32 O35         -9.7830    -0.0550    -1.0460 o          1 65V      -0.818800
     33 O36         -8.1440     0.0280    -2.5550 o          1 65V      -0.818800
     34 H1           6.6090     1.9580     0.3950 ha         1 65V       0.181000
     35 H2           7.7660    -2.7510    -0.5590 ha         1 65V       0.140000
     36 H3           5.4420    -2.0160    -0.7650 ha         1 65V       0.152000
     37 H4           9.9410    -2.0920    -0.0260 ho         1 65V       0.431000
     38 H5           3.4100    -1.2870     0.3050 h4         1 65V       0.200000
     39 H6           0.4440     2.4950    -0.5930 ha         1 65V       0.156000
     40 H7          -1.9720     2.1120    -0.3440 ha         1 65V       0.158000
     41 H8          -4.5390    -1.8390     0.7610 ha         1 65V       0.163000
     42 H9          -2.8440    -3.5850     1.0590 ha         1 65V       0.127000
     43 H10         -0.4370    -3.0880     0.7850 ha         1 65V       0.137000
     44 H11         -4.9620     0.7950     2.5500 ha         1 65V       0.119000
     45 H12         -7.3680     0.5930     3.0970 ha         1 65V       0.110000
     46 H13         -9.0250     0.2530     1.2970 ha         1 65V       0.150000
     47 H14         -5.8820     0.3150    -1.6040 ha         1 65V       0.163000
@<TRIPOS>BOND
     1     1     2 ar  
     2     1     6 ar  
     3     1     9 1   
     4     2     3 ar  
     5     2    34 1   
     6     3     4 ar  
     7     3     8 1   
     8     4     5 ar  
     9     4     7 1   
    10     5     6 ar  
    11     5    35 1   
    12     6    36 1   
    13     7    37 1   
    14     9    10 1   
    15     9    13 1   
    16    10    11 2   
    17    10    38 1   
    18    11    12 1   
    19    11    14 1   
    20    12    13 2   
    21    14    15 ar  
    22    14    19 ar  
    23    15    16 ar  
    24    15    39 1   
    25    16    17 ar  
    26    16    40 1   
    27    17    18 ar  
    28    17    20 ar  
    29    18    19 ar  
    30    18    23 ar  
    31    20    21 ar  
    32    20    24 1   
    33    21    22 ar  
    34    21    41 1   
    35    22    23 ar  
    36    22    42 1   
    37    23    43 1   
    38    24    25 1   
    39    25    26 ar  
    40    25    30 ar  
    41    26    27 ar  
    42    26    44 1   
    43    27    28 ar  
    44    27    45 1   
    45    28    29 ar  
    46    28    46 1   
    47    29    30 ar  
    48    29    31 1   
    49    30    47 1   
    50    31    32 1   
    51    31    33 1   
@<TRIPOS>SUBSTRUCTURE
     1 65V         1 TEMP              0 ****  ****    0 ROOT
