@<TRIPOS>MOLECULE
65W
   40    42     1     0     0
SMALL
bcc


@<TRIPOS>ATOM
      1 OAC         -3.4450     1.5720    -1.0320 o          1 65W      -0.813300
      2 CAQ         -3.9430     1.3020     0.0730 c          1 65W       0.916600
      3 OAD         -4.2620     2.0970     0.9760 o          1 65W      -0.813300
      4 CAW         -4.2750    -0.1990     0.3290 c3         1 65W       0.011800
      5 CAA         -4.4020    -0.5710     1.8010 c3         1 65W      -0.075600
      6 CAB         -5.5960    -0.4930    -0.3790 c3         1 65W      -0.075600
      7 OAP         -3.3320    -1.0580    -0.3300 os         1 65W      -0.322900
      8 CAR         -2.0080    -0.9380    -0.1670 ca         1 65W       0.228100
      9 CAJ         -1.2250    -1.7820    -0.9600 ca         1 65W      -0.200500
     10 CAL          0.1550    -1.7560    -0.8770 ca         1 65W      -0.081500
     11 CAI         -1.3620    -0.0780     0.7230 ca         1 65W      -0.200500
     12 CAK          0.0230    -0.0640     0.7950 ca         1 65W      -0.081500
     13 CAS          0.8120    -0.8910    -0.0010 cp         1 65W      -0.140000
     14 CAT          2.2880    -0.9010     0.1060 cp         1 65W       0.031000
     15 CAV          3.0640     0.2880    -0.0530 ca         1 65W      -0.031000
     16 CAO          2.4930     1.5390    -0.3950 ca         1 65W      -0.092000
     17 CAF          3.2700     2.6580    -0.5370 ca         1 65W      -0.145000
     18 CAE          4.6640     2.5900    -0.3470 ca         1 65W      -0.126000
     19 CAM          5.2510     1.3940    -0.0400 ca         1 65W      -0.137000
     20 CAU          4.4760     0.2180     0.1050 ca         1 65W      -0.035000
     21 CAN          5.0890    -1.0240     0.3870 ca         1 65W      -0.143000
     22 CAG          4.3320    -2.1560     0.5010 ca         1 65W      -0.121000
     23 CAH          2.9320    -2.0880     0.3650 ca         1 65W      -0.147000
     24 H2          -5.2150    -0.0070     2.2560 hc         1 65W       0.028200
     25 H3          -4.6360    -1.6320     1.9040 hc         1 65W       0.028200
     26 H4          -3.5030    -0.3680     2.3830 hc         1 65W       0.028200
     27 H5          -5.5320    -0.2640    -1.4430 hc         1 65W       0.028200
     28 H6          -5.8780    -1.5420    -0.2650 hc         1 65W       0.028200
     29 H7          -6.3920     0.1140     0.0520 hc         1 65W       0.028200
     30 H8          -1.7120    -2.4540    -1.6570 ha         1 65W       0.147500
     31 H9           0.7320    -2.4140    -1.5160 ha         1 65W       0.116000
     32 H10         -1.9110     0.5870     1.3730 ha         1 65W       0.147500
     33 H11          0.4940     0.6050     1.5060 ha         1 65W       0.116000
     34 H12          1.4270     1.6130    -0.5610 ha         1 65W       0.161000
     35 H13          2.8110     3.6000    -0.8040 ha         1 65W       0.131000
     36 H14          5.2680     3.4810    -0.4570 ha         1 65W       0.119000
     37 H15          6.3250     1.3270     0.0890 ha         1 65W       0.117000
     38 H16          6.1650    -1.0660     0.5030 ha         1 65W       0.118000
     39 H17          4.7990    -3.1080     0.7140 ha         1 65W       0.118000
     40 H18          2.3470    -2.9910     0.4900 ha         1 65W       0.132000
@<TRIPOS>BOND
     1     1     2 1   
     2     2     3 1   
     3     2     4 1   
     4     4     5 1   
     5     4     6 1   
     6     4     7 1   
     7     5    24 1   
     8     5    25 1   
     9     5    26 1   
    10     6    27 1   
    11     6    28 1   
    12     6    29 1   
    13     7     8 1   
    14     8     9 ar  
    15     8    11 ar  
    16     9    10 ar  
    17     9    30 1   
    18    10    13 ar  
    19    10    31 1   
    20    11    12 ar  
    21    11    32 1   
    22    12    13 ar  
    23    12    33 1   
    24    13    14 1   
    25    14    15 ar  
    26    14    23 ar  
    27    15    16 ar  
    28    15    20 ar  
    29    16    17 ar  
    30    16    34 1   
    31    17    18 ar  
    32    17    35 1   
    33    18    19 ar  
    34    18    36 1   
    35    19    20 ar  
    36    19    37 1   
    37    20    21 ar  
    38    21    22 ar  
    39    21    38 1   
    40    22    23 ar  
    41    22    39 1   
    42    23    40 1   
@<TRIPOS>SUBSTRUCTURE
     1 65W         1 TEMP              0 ****  ****    0 ROOT
