@<TRIPOS>MOLECULE
65W
   40    42     1     0     0
SMALL
No Charge or Current Charge


@<TRIPOS>ATOM
      1 OAC         -3.6870     1.9640    -0.6110 o          1 65W      -0.708000
      2 CAQ         -4.2960     1.4120     0.2980 c          1 65W       0.706000
      3 OAD         -4.7710     2.0350     1.2400 o          1 65W      -0.708000
      4 CAW         -4.3910    -0.1660     0.3170 c3         1 65W       0.035000
      5 CAA         -4.3300    -0.7810     1.7480 c3         1 65W      -0.075600
      6 CAB         -5.7330    -0.5650    -0.3470 c3         1 65W      -0.075600
      7 OAP         -3.3830    -0.8270    -0.5060 os         1 65W      -0.346100
      8 CAR         -2.0110    -0.7790    -0.3040 ca         1 65W       0.228100
      9 CAJ         -1.2260    -1.6520    -1.0740 ca         1 65W      -0.182500
     10 CAL          0.1720    -1.6750    -0.9330 ca         1 65W      -0.063500
     11 CAI         -1.3750     0.0840     0.6160 ca         1 65W      -0.182500
     12 CAK          0.0230     0.0600     0.7570 ca         1 65W      -0.063500
     13 CAS          0.8210    -0.8120    -0.0210 cp         1 65W      -0.140000
     14 CAT          2.3060    -0.8540     0.1400 cp         1 65W       0.031000
     15 CAV          3.1440     0.2810    -0.0760 ca         1 65W      -0.031000
     16 CAO          2.6170     1.5190    -0.5120 ca         1 65W      -0.074000
     17 CAF          3.4590     2.6260    -0.7160 ca         1 65W      -0.127000
     18 CAE          4.8400     2.5120    -0.4940 ca         1 65W      -0.108000
     19 CAM          5.3810     1.2870    -0.0760 ca         1 65W      -0.119000
     20 CAU          4.5430     0.1740     0.1280 ca         1 65W      -0.035000
     21 CAN          5.1090    -1.0500     0.5300 ca         1 65W      -0.125000
     22 CAG          4.2940    -2.1730     0.7250 ca         1 65W      -0.103000
     23 CAH          2.9090    -2.0740     0.5290 ca         1 65W      -0.129000
     24 H2          -5.2230    -0.5120     2.3230 hc         1 65W       0.028200
     25 H3          -4.2840    -1.8760     1.6980 hc         1 65W       0.028200
     26 H4          -3.4610    -0.4300     2.3130 hc         1 65W       0.028200
     27 H5          -5.7860    -0.1820    -1.3730 hc         1 65W       0.028200
     28 H6          -5.8470    -1.6560    -0.3810 hc         1 65W       0.028200
     29 H7          -6.5810    -0.1520     0.2120 hc         1 65W       0.028200
     30 H8          -1.7080    -2.3190    -1.7840 ha         1 65W       0.129500
     31 H9           0.7600    -2.3620    -1.5380 ha         1 65W       0.098000
     32 H10         -1.9390     0.7820     1.2220 ha         1 65W       0.129500
     33 H11          0.4980     0.7240     1.4760 ha         1 65W       0.098000
     34 H12          1.5550     1.6340    -0.7090 ha         1 65W       0.143000
     35 H13          3.0400     3.5720    -1.0500 ha         1 65W       0.113000
     36 H14          5.4900     3.3700    -0.6530 ha         1 65W       0.101000
     37 H15          6.4530     1.2030     0.0850 ha         1 65W       0.099000
     38 H16          6.1820    -1.1330     0.6850 ha         1 65W       0.100000
     39 H17          4.7350    -3.1190     1.0310 ha         1 65W       0.100000
     40 H18          2.2860    -2.9490     0.6940 ha         1 65W       0.114000
@<TRIPOS>BOND
     1     1     2 1   
     2     2     3 1   
     3     2     4 1   
     4     4     5 1   
     5     4     6 1   
     6     4     7 1   
     7     5    24 1   
     8     5    25 1   
     9     5    26 1   
    10     6    27 1   
    11     6    28 1   
    12     6    29 1   
    13     7     8 1   
    14     8     9 ar  
    15     8    11 ar  
    16     9    10 ar  
    17     9    30 1   
    18    10    13 ar  
    19    10    31 1   
    20    11    12 ar  
    21    11    32 1   
    22    12    13 ar  
    23    12    33 1   
    24    13    14 1   
    25    14    15 ar  
    26    14    23 ar  
    27    15    16 ar  
    28    15    20 ar  
    29    16    17 ar  
    30    16    34 1   
    31    17    18 ar  
    32    17    35 1   
    33    18    19 ar  
    34    18    36 1   
    35    19    20 ar  
    36    19    37 1   
    37    20    21 ar  
    38    21    22 ar  
    39    21    38 1   
    40    22    23 ar  
    41    22    39 1   
    42    23    40 1   
@<TRIPOS>SUBSTRUCTURE
     1 65W         1 TEMP              0 ****  ****    0 ROOT
