@<TRIPOS>MOLECULE
65X
   47    51     1     0     0
SMALL
No Charge or Current Charge


@<TRIPOS>ATOM
      1 C10          0.7660     0.3560     0.0030 cp         1 65X       0.089000
      2 C11          1.4880     1.6610     0.0790 cp         1 65X      -0.068000
      3 C13          2.8410     3.2790     1.3320 ca         1 65X      -0.106000
      4 C15          2.2160     3.7540    -0.9710 ca         1 65X      -0.106000
      5 C16          1.5300     2.5290    -1.0380 ca         1 65X      -0.082500
      6 C17         -1.5170     1.4700     0.1610 cc         1 65X       0.461000
      7 C20         -3.2510    -1.3230     1.3110 c6         1 65X       0.196300
      8 C21         -4.7720    -1.0370     1.2550 c6         1 65X      -0.081900
      9 C22         -5.4770    -1.9450     0.2200 c6         1 65X      -0.077400
     10 C23         -4.7840    -1.8230    -1.1570 c6         1 65X      -0.081900
     11 C24         -3.2660    -2.1030    -1.0450 c6         1 65X       0.196300
     12 C1           3.6150    -2.0730    -0.2920 ca         1 65X       0.103000
     13 C2           2.9180    -3.2850    -0.3830 ca         1 65X      -0.078000
     14 C3           1.5140    -3.2820    -0.3510 ca         1 65X      -0.092000
     15 C4           0.7920    -2.0810    -0.2250 ca         1 65X       0.316000
     16 C5           1.4960    -0.8580    -0.1240 ca         1 65X      -0.104000
     17 C6           2.9120    -0.8660    -0.1650 ca         1 65X      -0.062000
     18 N7          -0.5500    -2.1290    -0.2050 nb         1 65X      -0.734000
     19 C8          -1.2460    -0.9890    -0.0940 ca         1 65X       0.614900
     20 C9          -0.6560     0.2880     0.0030 ca         1 65X      -0.210500
     21 C12          2.1550     2.0540     1.2650 ca         1 65X      -0.082500
     22 C14          2.8710     4.1290     0.2140 ca         1 65X      -0.094000
     23 N18         -2.6320    -1.2050    -0.0380 nh         1 65X      -0.773300
     24 Cl           5.3730    -2.0660    -0.3390 cl         1 65X      -0.194000
     25 N25         -2.7990     1.6010    -0.2850 na         1 65X      -0.196700
     26 N26         -3.3030     2.8220     0.0180 nc         1 65X      -0.209800
     27 N27         -2.3250     3.4240     0.6350 nd         1 65X      -0.049000
     28 N28         -1.2180     2.6150     0.7440 nd         1 65X      -0.377000
     29 H1           3.3470     3.5680     2.2500 ha         1 65X       0.117000
     30 H2           2.2390     4.4120    -1.8370 ha         1 65X       0.117000
     31 H3           1.0270     2.2450    -1.9600 ha         1 65X       0.117000
     32 H5          -3.0870    -2.3350     1.7100 h1         1 65X       0.050700
     33 H6          -5.2130    -1.1900     2.2490 hc         1 65X       0.050200
     34 H7          -4.9410     0.0170     1.0000 hc         1 65X       0.050200
     35 H8          -5.4440    -2.9900     0.5600 hc         1 65X       0.044200
     36 H9          -6.5380    -1.6730     0.1370 hc         1 65X       0.044200
     37 H10         -5.2380    -2.5250    -1.8690 hc         1 65X       0.050200
     38 H11         -4.9440    -0.8170    -1.5660 hc         1 65X       0.050200
     39 H12         -3.1130    -3.1560    -0.7640 h1         1 65X       0.050700
     40 H13         -2.8040    -1.9540    -2.0330 h1         1 65X       0.050700
     41 H14          3.4620    -4.2210    -0.4810 ha         1 65X       0.134000
     42 H15          0.9750    -4.2220    -0.4250 ha         1 65X       0.137000
     43 H16          3.4830     0.0560    -0.1040 ha         1 65X       0.142000
     44 H17          2.1350     1.4010     2.1340 ha         1 65X       0.117000
     45 H18          3.4020     5.0780     0.2660 ha         1 65X       0.116000
     46 H19         -3.3390     0.8720    -0.7350 hn         1 65X       0.395000
     47 H4          -2.7830    -0.6150     2.0100 h1         1 65X       0.050700
@<TRIPOS>BOND
     1     1     2 1   
     2     1    16 ar  
     3     1    20 ar  
     4     2     5 ar  
     5     2    21 ar  
     6     3    21 ar  
     7     3    22 ar  
     8     3    29 1   
     9     4     5 ar  
    10     4    22 ar  
    11     4    30 1   
    12     5    31 1   
    13     6    20 1   
    14     6    25 1   
    15     6    28 2   
    16     7     8 1   
    17     7    23 1   
    18     7    32 1   
    19     7    47 1   
    20     8     9 1   
    21     8    33 1   
    22     8    34 1   
    23     9    10 1   
    24     9    35 1   
    25     9    36 1   
    26    10    11 1   
    27    10    37 1   
    28    10    38 1   
    29    11    23 1   
    30    11    39 1   
    31    11    40 1   
    32    12    13 ar  
    33    12    17 ar  
    34    12    24 1   
    35    13    14 ar  
    36    13    41 1   
    37    14    15 ar  
    38    14    42 1   
    39    15    16 ar  
    40    15    18 ar  
    41    16    17 ar  
    42    17    43 1   
    43    18    19 ar  
    44    19    20 ar  
    45    19    23 1   
    46    21    44 1   
    47    22    45 1   
    48    25    26 1   
    49    25    46 1   
    50    26    27 2   
    51    27    28 1   
@<TRIPOS>SUBSTRUCTURE
     1 65X         1 TEMP              0 ****  ****    0 ROOT
