@<TRIPOS>MOLECULE
65X
   47    51     1     0     0
SMALL
abcg2


@<TRIPOS>ATOM
      1 C10          0.7260     0.2750     0.0680 cp         1 65X       0.089000
      2 C11          1.3910     1.5900     0.2160 cp         1 65X      -0.068000
      3 C13          2.6190     3.1730     1.5510 ca         1 65X      -0.106000
      4 C15          2.0640     3.7010    -0.7270 ca         1 65X      -0.106000
      5 C16          1.4350     2.4710    -0.8600 ca         1 65X      -0.082500
      6 C17         -1.4710     1.3520     0.2150 cc         1 65X       0.461000
      7 C20         -3.2840    -0.8700     1.2190 c6         1 65X       0.196300
      8 C21         -4.7510    -0.5660     0.9670 c6         1 65X      -0.081900
      9 C22         -5.4390    -1.7640     0.3290 c6         1 65X      -0.077400
     10 C23         -4.6760    -2.2160    -0.9110 c6         1 65X      -0.081900
     11 C24         -3.2050    -2.4600    -0.6030 c6         1 65X       0.196300
     12 C1           3.5970    -1.9970    -0.5890 ca         1 65X       0.103000
     13 C2           2.9260    -3.2050    -0.8480 ca         1 65X      -0.078000
     14 C3           1.5600    -3.2450    -0.7800 ca         1 65X      -0.092000
     15 C4           0.8180    -2.0910    -0.4480 ca         1 65X       0.316000
     16 C5           1.5080    -0.8850    -0.1950 ca         1 65X      -0.104000
     17 C6           2.9160    -0.8540    -0.2720 ca         1 65X      -0.062000
     18 N7          -0.5260    -2.1920    -0.3690 nb         1 65X      -0.734000
     19 C8          -1.2420    -1.1390    -0.0850 ca         1 65X       0.614900
     20 C9          -0.6380     0.1550     0.1010 ca         1 65X      -0.210500
     21 C12          1.9890     1.9440     1.4210 ca         1 65X      -0.082500
     22 C14          2.6560     4.0540     0.4780 ca         1 65X      -0.094000
     23 N18         -2.6150    -1.2590    -0.0270 nh         1 65X      -0.773300
     24 CL           5.3260    -1.9690    -0.6860 cl         1 65X      -0.194000
     25 N25         -2.4390     1.6900    -0.6400 na         1 65X      -0.196700
     26 N26         -2.9750     2.8330    -0.2570 nc         1 65X      -0.209800
     27 N27         -2.3540     3.1830     0.8010 nd         1 65X      -0.049000
     28 N28         -1.4170     2.2950     1.1270 nd         1 65X      -0.377000
     29 H1           3.0800     3.4440     2.4920 ha         1 65X       0.117000
     30 H2           2.0940     4.3810    -1.5680 ha         1 65X       0.117000
     31 H3           0.9820     2.1930    -1.8030 ha         1 65X       0.117000
     32 H5          -3.1970    -1.6930     1.9430 h1         1 65X       0.050700
     33 H6          -5.2260    -0.3040     1.9150 hc         1 65X       0.050200
     34 H7          -4.8350     0.3070     0.3130 hc         1 65X       0.050200
     35 H8          -5.4750    -2.5860     1.0520 hc         1 65X       0.044200
     36 H9          -6.4740    -1.5240     0.0750 hc         1 65X       0.044200
     37 H10         -5.1070    -3.1350    -1.3130 hc         1 65X       0.050200
     38 H11         -4.7560    -1.4560    -1.6940 hc         1 65X       0.050200
     39 H12         -3.1060    -3.3120     0.0840 h1         1 65X       0.050700
     40 H13         -2.6680    -2.7180    -1.5140 h1         1 65X       0.050700
     41 H14          3.4870    -4.0930    -1.1020 ha         1 65X       0.134000
     42 H15          1.0280    -4.1660    -0.9790 ha         1 65X       0.137000
     43 H16          3.4500     0.0680    -0.0860 ha         1 65X       0.142000
     44 H17          1.9560     1.2600     2.2600 ha         1 65X       0.117000
     45 H18          3.1480     5.0130     0.5810 ha         1 65X       0.116000
     46 H19         -2.7760     1.2020    -1.4590 hn         1 65X       0.395000
     47 H4          -2.7880    -0.0150     1.6750 h1         1 65X       0.050700
@<TRIPOS>BOND
     1     1     2 1   
     2     1    16 ar  
     3     1    20 ar  
     4     2     5 ar  
     5     2    21 ar  
     6     3    21 ar  
     7     3    22 ar  
     8     3    29 1   
     9     4     5 ar  
    10     4    22 ar  
    11     4    30 1   
    12     5    31 1   
    13     6    20 1   
    14     6    25 1   
    15     6    28 2   
    16     7     8 1   
    17     7    23 1   
    18     7    32 1   
    19     7    47 1   
    20     8     9 1   
    21     8    33 1   
    22     8    34 1   
    23     9    10 1   
    24     9    35 1   
    25     9    36 1   
    26    10    11 1   
    27    10    37 1   
    28    10    38 1   
    29    11    23 1   
    30    11    39 1   
    31    11    40 1   
    32    12    13 ar  
    33    12    17 ar  
    34    12    24 1   
    35    13    14 ar  
    36    13    41 1   
    37    14    15 ar  
    38    14    42 1   
    39    15    16 ar  
    40    15    18 ar  
    41    16    17 ar  
    42    17    43 1   
    43    18    19 ar  
    44    19    20 ar  
    45    19    23 1   
    46    21    44 1   
    47    22    45 1   
    48    25    26 1   
    49    25    46 1   
    50    26    27 2   
    51    27    28 1   
@<TRIPOS>SUBSTRUCTURE
     1 65X         1 TEMP              0 ****  ****    0 ROOT
