@<TRIPOS>MOLECULE
65Y
   47    49     1     0     0
SMALL
No Charge or Current Charge


@<TRIPOS>ATOM
      1 C10          0.4230    -2.1060    -0.2790 ca         1 65Y      -0.078000
      2 C11         -2.1280    -3.0960     0.3180 ca         1 65Y      -0.075000
      3 C13         -0.6460    -1.2000    -0.0770 ca         1 65Y      -0.062000
      4 C15         -2.8430     0.4540     0.3160 ca         1 65Y       0.405300
      5 C17         -4.1110     1.2990     0.5470 c3         1 65Y      -0.112000
      6 C22         -5.0470     1.2560    -0.6840 c3         1 65Y      -0.079100
      7 C23         -4.8640     0.9130     1.8450 c3         1 65Y      -0.079100
      8 C25          5.4980     0.3260     0.7420 c3         1 65Y      -0.082100
      9 C26          4.7940     2.6050     1.6650 c3         1 65Y      -0.082100
     10 C1           1.1470     1.4010    -1.7380 ca         1 65Y      -0.065000
     11 C2           2.4110     1.9390    -2.0270 ca         1 65Y      -0.120000
     12 C3           3.4380     1.8770    -1.0720 ca         1 65Y      -0.113000
     13 C4           3.2090     1.2770     0.1840 ca         1 65Y      -0.092300
     14 C5           1.9360     0.7420     0.4640 ca         1 65Y      -0.083000
     15 C6           0.8900     0.7930    -0.4880 cp         1 65Y      -0.009000
     16 C7          -0.4480     0.2040    -0.1800 cp         1 65Y      -0.022000
     17 C8          -1.0600    -3.9870     0.1250 ca         1 65Y      -0.128000
     18 C9           0.2140    -3.4890    -0.1750 ca         1 65Y       0.101000
     19 C12         -1.9420    -1.7030     0.2190 ca         1 65Y       0.259000
     20 C14         -1.5930     1.0190     0.0180 ca         1 65Y      -0.131600
     21 N16         -3.0050    -0.8890     0.4070 nb         1 65Y      -0.706000
     22 Cl1          1.5530    -4.6010    -0.4260 cl         1 65Y      -0.244000
     23 H1           1.4200    -1.7520    -0.5220 ha         1 65Y       0.131000
     24 H2          -3.1160    -3.4880     0.5460 ha         1 65Y       0.119000
     25 H3          -3.8240     2.3470     0.6800 hc         1 65Y       0.086700
     26 H4          -5.4190     0.2390    -0.8580 hc         1 65Y       0.030867
     27 H5          -5.9090     1.9170    -0.5400 hc         1 65Y       0.030867
     28 H6          -4.5130     1.5840    -1.5840 hc         1 65Y       0.030867
     29 H7          -5.6940     1.6060     2.0300 hc         1 65Y       0.030867
     30 H8          -5.2790    -0.1000     1.7810 hc         1 65Y       0.030867
     31 H9          -4.1890     0.9550     2.7080 hc         1 65Y       0.030867
     32 H10          3.9260     0.7120     2.1330 hc         1 65Y       0.046700
     33 H11          6.2510     0.2140     1.5310 hc         1 65Y       0.029533
     34 H12          5.1440    -0.6740     0.4650 hc         1 65Y       0.029533
     35 H13          5.9850     0.7730    -0.1330 hc         1 65Y       0.029533
     36 H14          5.2590     3.1420     0.8300 hc         1 65Y       0.029533
     37 H15          3.9470     3.1990     2.0290 hc         1 65Y       0.029533
     38 H16          5.5300     2.5320     2.4750 hc         1 65Y       0.029533
     39 H17          0.3580     1.4480    -2.4850 ha         1 65Y       0.134000
     40 H18          2.5950     2.4030    -2.9940 ha         1 65Y       0.101000
     41 H19          4.4130     2.2950    -1.3110 ha         1 65Y       0.093000
     42 H20          1.7450     0.2750     1.4280 ha         1 65Y       0.111000
     43 H21         -1.2220    -5.0590     0.2050 ha         1 65Y       0.112000
     44 C19         -1.3910     2.4940    -0.0800 c          1 65Y       0.718600
     45 O20         -1.7510     3.0530    -1.1050 o          1 65Y      -0.702500
     46 O21         -0.9460     3.0780     0.8970 o          1 65Y      -0.702500
     47 C24          4.3220     1.1990     1.2320 c3         1 65Y      -0.010400
@<TRIPOS>BOND
     1     1     3 ar  
     2     1    18 ar  
     3     1    23 1   
     4     2    17 ar  
     5     2    19 ar  
     6     2    24 1   
     7     3    16 ar  
     8     3    19 ar  
     9     4     5 1   
    10     4    20 ar  
    11     4    21 ar  
    12     5     6 1   
    13     5     7 1   
    14     5    25 1   
    15     6    26 1   
    16     6    27 1   
    17     6    28 1   
    18     7    29 1   
    19     7    30 1   
    20     7    31 1   
    21     8    33 1   
    22     8    34 1   
    23     8    35 1   
    24     8    47 1   
    25     9    36 1   
    26     9    37 1   
    27     9    38 1   
    28     9    47 1   
    29    10    11 ar  
    30    10    15 ar  
    31    10    39 1   
    32    11    12 ar  
    33    11    40 1   
    34    12    13 ar  
    35    12    41 1   
    36    13    14 ar  
    37    13    47 1   
    38    14    15 ar  
    39    14    42 1   
    40    15    16 1   
    41    16    20 ar  
    42    17    18 ar  
    43    17    43 1   
    44    18    22 1   
    45    19    21 ar  
    46    20    44 1   
    47    32    47 1   
    48    44    45 1   
    49    44    46 1   
@<TRIPOS>SUBSTRUCTURE
     1 65Y         1 TEMP              0 ****  ****    0 ROOT
