@<TRIPOS>MOLECULE
65Y
   47    49     1     0     0
SMALL
abcg2


@<TRIPOS>ATOM
      1 C10          0.4300    -2.1160    -0.2410 ca         1 65Y      -0.078000
      2 C11         -2.0940    -3.0720     0.4790 ca         1 65Y      -0.075000
      3 C13         -0.6170    -1.1950    -0.0140 ca         1 65Y      -0.062000
      4 C15         -2.7980     0.4310     0.4080 ca         1 65Y       0.405300
      5 C17         -4.0280     1.2880     0.6050 c3         1 65Y      -0.112000
      6 C22         -4.7700     1.4220    -0.7290 c3         1 65Y      -0.079100
      7 C23         -4.9520     0.7460     1.6890 c3         1 65Y      -0.079100
      8 C25          5.4870     0.3850     0.6190 c3         1 65Y      -0.082100
      9 C26          4.7010     2.5420     1.6530 c3         1 65Y      -0.082100
     10 C1           1.0760     1.4070    -1.6990 ca         1 65Y      -0.065000
     11 C2           2.3270     1.9330    -1.9980 ca         1 65Y      -0.120000
     12 C3           3.3610     1.8500    -1.0790 ca         1 65Y      -0.113000
     13 C4           3.1680     1.2360     0.1590 ca         1 65Y      -0.092300
     14 C5           1.9130     0.7100     0.4420 ca         1 65Y      -0.083000
     15 C6           0.8630     0.7890    -0.4720 cp         1 65Y      -0.009000
     16 C7          -0.4600     0.2130    -0.1380 cp         1 65Y      -0.022000
     17 C8          -1.0690    -3.9530     0.2660 ca         1 65Y      -0.128000
     18 C9           0.1950    -3.4550    -0.1000 ca         1 65Y       0.101000
     19 C12         -1.8970    -1.6800     0.3380 ca         1 65Y       0.259000
     20 C14         -1.5490     1.0250     0.0580 ca         1 65Y      -0.131600
     21 N16         -2.9490    -0.8600     0.5460 nb         1 65Y      -0.706000
     22 CL1          1.4790    -4.5860    -0.3830 cl         1 65Y      -0.244000
     23 H1           1.4090    -1.7620    -0.5340 ha         1 65Y       0.131000
     24 H2          -3.0760    -3.4300     0.7580 ha         1 65Y       0.119000
     25 H3          -3.7070     2.2870     0.9110 hc         1 65Y       0.086700
     26 H4          -5.1090     0.4470    -1.0820 hc         1 65Y       0.030867
     27 H5          -5.6460     2.0620    -0.6140 hc         1 65Y       0.030867
     28 H6          -4.1290     1.8630    -1.4910 hc         1 65Y       0.030867
     29 H7          -5.7900     1.4290     1.8370 hc         1 65Y       0.030867
     30 H8          -5.3570    -0.2290     1.4200 hc         1 65Y       0.030867
     31 H9          -4.4340     0.6410     2.6430 hc         1 65Y       0.030867
     32 H10          3.9050     0.5980     2.0360 hc         1 65Y       0.046700
     33 H11          6.2680     0.2960     1.3760 hc         1 65Y       0.029533
     34 H12          5.2080    -0.6220     0.3070 hc         1 65Y       0.029533
     35 H13          5.9210     0.8950    -0.2430 hc         1 65Y       0.029533
     36 H14          5.1150     3.1360     0.8360 hc         1 65Y       0.029533
     37 H15          3.8530     3.0890     2.0680 hc         1 65Y       0.029533
     38 H16          5.4650     2.4680     2.4280 hc         1 65Y       0.029533
     39 H17          0.2730     1.4720    -2.4200 ha         1 65Y       0.134000
     40 H18          2.4950     2.4100    -2.9550 ha         1 65Y       0.101000
     41 H19          4.3290     2.2680    -1.3330 ha         1 65Y       0.093000
     42 H20          1.7440     0.2310     1.4000 ha         1 65Y       0.111000
     43 H21         -1.2250    -5.0180     0.3730 ha         1 65Y       0.112000
     44 C19         -1.4140     2.5350    -0.0530 c          1 65Y       0.718600
     45 O20         -1.7670     3.0370    -1.1350 o          1 65Y      -0.702500
     46 O21         -0.9680     3.1110     0.9520 o          1 65Y      -0.702500
     47 C24          4.2860     1.1510     1.1720 c3         1 65Y      -0.010400
@<TRIPOS>BOND
     1     1     3 ar  
     2     1    18 ar  
     3     1    23 1   
     4     2    17 ar  
     5     2    19 ar  
     6     2    24 1   
     7     3    16 ar  
     8     3    19 ar  
     9     4     5 1   
    10     4    20 ar  
    11     4    21 ar  
    12     5     6 1   
    13     5     7 1   
    14     5    25 1   
    15     6    26 1   
    16     6    27 1   
    17     6    28 1   
    18     7    29 1   
    19     7    30 1   
    20     7    31 1   
    21     8    33 1   
    22     8    34 1   
    23     8    35 1   
    24     8    47 1   
    25     9    36 1   
    26     9    37 1   
    27     9    38 1   
    28     9    47 1   
    29    10    11 ar  
    30    10    15 ar  
    31    10    39 1   
    32    11    12 ar  
    33    11    40 1   
    34    12    13 ar  
    35    12    41 1   
    36    13    14 ar  
    37    13    47 1   
    38    14    15 ar  
    39    14    42 1   
    40    15    16 1   
    41    16    20 ar  
    42    17    18 ar  
    43    17    43 1   
    44    18    22 1   
    45    19    21 ar  
    46    20    44 1   
    47    32    47 1   
    48    44    45 1   
    49    44    46 1   
@<TRIPOS>SUBSTRUCTURE
     1 65Y         1 TEMP              0 ****  ****    0 ROOT
