@<TRIPOS>MOLECULE
65Z
   44    47     1     0     0
SMALL
No Charge or Current Charge


@<TRIPOS>ATOM
      1 N1           2.9150    -0.1370    -0.1690 nh         1 65Z      -0.758300
      2 C2           3.6840    -1.0830    -1.0250 c6         1 65Z       0.222800
      3 C3           5.0650    -0.4900    -1.4000 c6         1 65Z      -0.086900
      4 C4           5.8600    -0.0750    -0.1390 c6         1 65Z      -0.072400
      5 C5           5.0120     0.8770     0.7370 c6         1 65Z      -0.086900
      6 C6           3.6360     0.2510     1.0710 c6         1 65Z       0.222800
      7 C7          -3.1250    -2.0630     0.0360 ca         1 65Z       0.084000
      8 C8          -2.2540    -3.1550    -0.0200 ca         1 65Z      -0.108000
      9 C9          -0.8670    -2.9440    -0.0750 ca         1 65Z       0.130000
     10 C10         -2.6180    -0.7570     0.0410 ca         1 65Z      -0.059000
     11 C11         -1.2240    -0.5230    -0.0060 ca         1 65Z      -0.095000
     12 C12         -0.3250    -1.6290    -0.0720 ca         1 65Z       0.322000
     13 N13          1.0190    -1.4470    -0.1320 nb         1 65Z      -0.792000
     14 C14          1.5140    -0.1980    -0.1340 ca         1 65Z       0.665900
     15 C15          0.6980     0.9290    -0.0760 ca         1 65Z      -0.159600
     16 C16         -0.7100     0.8030    -0.0030 cp         1 65Z      -0.013000
     17 C19          1.2680     2.2990    -0.0860 c          1 65Z       0.720600
     18 O20          1.3090     2.9120     0.9720 o          1 65Z      -0.697500
     19 O21          1.6210     2.7660    -1.1590 o          1 65Z      -0.697500
     20 C22         -1.6030     2.0000     0.0610 cp         1 65Z      -0.002000
     21 C23         -1.7880     2.8290    -1.0710 ca         1 65Z      -0.075500
     22 C24         -3.3120     4.2570     0.1790 ca         1 65Z      -0.121000
     23 C25         -3.1390     3.4460     1.3130 ca         1 65Z      -0.121000
     24 C26         -2.6360     3.9480    -1.0130 ca         1 65Z      -0.121000
     25 C27         -2.2910     2.3270     1.2540 ca         1 65Z      -0.075500
     26 H1           3.8290    -2.0380    -0.4980 h1         1 65Z       0.047950
     27 H2           3.1310    -1.2970    -1.9520 h1         1 65Z       0.047950
     28 H3           5.6380    -1.2230    -1.9820 hc         1 65Z       0.050200
     29 H4           4.9210     0.3840    -2.0500 hc         1 65Z       0.050200
     30 H5           6.1320    -0.9690     0.4390 hc         1 65Z       0.023700
     31 H6           6.8010     0.4140    -0.4290 hc         1 65Z       0.023700
     32 H7           5.5490     1.1120     1.6660 hc         1 65Z       0.050200
     33 H8           4.8610     1.8300     0.2120 hc         1 65Z       0.050200
     34 H9           3.0490     0.9730     1.6560 h1         1 65Z       0.047950
     35 H10          3.7860    -0.6340     1.7080 h1         1 65Z       0.047950
     36 H11         -2.6500    -4.1670    -0.0240 ha         1 65Z       0.125000
     37 H12         -3.3250     0.0680     0.0760 ha         1 65Z       0.133000
     38 H14         -1.2710     2.5940    -1.9990 ha         1 65Z       0.118500
     39 H15         -3.9690     5.1230     0.2240 ha         1 65Z       0.092000
     40 H16         -3.6610     3.6840     2.2370 ha         1 65Z       0.097500
     41 H17         -2.7690     4.5750    -1.8920 ha         1 65Z       0.097500
     42 H18         -2.1610     1.7040     2.1360 ha         1 65Z       0.118500
     43 Cl1          0.1810    -4.3690    -0.1520 cl         1 65Z      -0.207000
     44 Cl2         -4.8620    -2.3320     0.0960 cl         1 65Z      -0.238000
@<TRIPOS>BOND
     1     1     2 1   
     2     1     6 1   
     3     1    14 1   
     4     2     3 1   
     5     2    26 1   
     6     2    27 1   
     7     3     4 1   
     8     3    28 1   
     9     3    29 1   
    10     4     5 1   
    11     4    30 1   
    12     4    31 1   
    13     5     6 1   
    14     5    32 1   
    15     5    33 1   
    16     6    34 1   
    17     6    35 1   
    18     7     8 ar  
    19     7    10 ar  
    20     7    44 1   
    21     8     9 ar  
    22     8    36 1   
    23     9    12 ar  
    24     9    43 1   
    25    10    11 ar  
    26    10    37 1   
    27    11    12 ar  
    28    11    16 ar  
    29    12    13 ar  
    30    13    14 ar  
    31    14    15 ar  
    32    15    16 ar  
    33    15    17 1   
    34    16    20 1   
    35    17    18 1   
    36    17    19 1   
    37    20    21 ar  
    38    20    25 ar  
    39    21    24 ar  
    40    21    38 1   
    41    22    23 ar  
    42    22    24 ar  
    43    22    39 1   
    44    23    25 ar  
    45    23    40 1   
    46    24    41 1   
    47    25    42 1   
@<TRIPOS>SUBSTRUCTURE
     1 65Z         1 TEMP              0 ****  ****    0 ROOT
