@<TRIPOS>MOLECULE
65Z
   44    47     1     0     0
SMALL
abcg2


@<TRIPOS>ATOM
      1 N1           2.8910    -0.2250    -0.0090 nh         1 65Z      -0.758300
      2 C2           3.6710    -1.3540    -0.4840 c6         1 65Z       0.222800
      3 C3           4.9430    -0.8550    -1.1580 c6         1 65Z      -0.086900
      4 C4           5.7550     0.0490    -0.2370 c6         1 65Z      -0.072400
      5 C5           4.8810     1.1720     0.3090 c6         1 65Z      -0.086900
      6 C6           3.6250     0.5980     0.9410 c6         1 65Z       0.222800
      7 C7          -3.1160    -1.9770    -0.2960 ca         1 65Z       0.084000
      8 C8          -2.2710    -3.0740    -0.5080 ca         1 65Z      -0.108000
      9 C9          -0.9150    -2.8750    -0.4920 ca         1 65Z       0.130000
     10 C10         -2.6210    -0.7190    -0.0760 ca         1 65Z      -0.059000
     11 C11         -1.2300    -0.5170    -0.0530 ca         1 65Z      -0.095000
     12 C12         -0.3460    -1.6000    -0.2550 ca         1 65Z       0.322000
     13 N13          0.9870    -1.4700    -0.2130 nb         1 65Z      -0.792000
     14 C14          1.5280    -0.2880    -0.0220 ca         1 65Z       0.665900
     15 C15          0.7280     0.9060     0.1150 ca         1 65Z      -0.159600
     16 C16         -0.6310     0.7690     0.1240 cp         1 65Z      -0.013000
     17 C19          1.3210     2.3110     0.0640 c          1 65Z       0.720600
     18 O20          1.2000     3.0140     1.0790 o          1 65Z      -0.697500
     19 O21          1.8430     2.6080    -1.0230 o          1 65Z      -0.697500
     20 C22         -1.5130     1.9590     0.2160 cp         1 65Z      -0.002000
     21 C23         -1.7960     2.7010    -0.9250 ca         1 65Z      -0.075500
     22 C24         -3.2160     4.1610     0.3570 ca         1 65Z      -0.121000
     23 C25         -2.9410     3.4180     1.4980 ca         1 65Z      -0.121000
     24 C26         -2.6420     3.8010    -0.8550 ca         1 65Z      -0.121000
     25 C27         -2.0920     2.3220     1.4280 ca         1 65Z      -0.075500
     26 H1           3.9250    -2.0230     0.3510 h1         1 65Z       0.047950
     27 H2           3.0740    -1.9370    -1.1810 h1         1 65Z       0.047950
     28 H3           5.5350    -1.7170    -1.4750 hc         1 65Z       0.050200
     29 H4           4.6680    -0.3060    -2.0640 hc         1 65Z       0.050200
     30 H5           6.1420    -0.5420     0.6000 hc         1 65Z       0.023700
     31 H6           6.6220     0.4530    -0.7640 hc         1 65Z       0.023700
     32 H7           5.4250     1.7540     1.0570 hc         1 65Z       0.050200
     33 H8           4.5960     1.8580    -0.4930 hc         1 65Z       0.050200
     34 H9           2.9960     1.3830     1.3480 h1         1 65Z       0.047950
     35 H10          3.9130    -0.0330     1.7950 h1         1 65Z       0.047950
     36 H11         -2.6820    -4.0590    -0.6870 ha         1 65Z       0.125000
     37 H12         -3.2950     0.1140     0.0710 ha         1 65Z       0.133000
     38 H14         -1.3560     2.4180    -1.8730 ha         1 65Z       0.118500
     39 H15         -3.8780     5.0160     0.4120 ha         1 65Z       0.092000
     40 H16         -3.3850     3.6930     2.4460 ha         1 65Z       0.097500
     41 H17         -2.8550     4.3740    -1.7480 ha         1 65Z       0.097500
     42 H18         -1.8770     1.7470     2.3200 ha         1 65Z       0.118500
     43 CL1          0.1390    -4.2150    -0.7620 cl         1 65Z      -0.207000
     44 CL2         -4.8300    -2.2390    -0.3230 cl         1 65Z      -0.238000
@<TRIPOS>BOND
     1     1     2 1   
     2     1     6 1   
     3     1    14 1   
     4     2     3 1   
     5     2    26 1   
     6     2    27 1   
     7     3     4 1   
     8     3    28 1   
     9     3    29 1   
    10     4     5 1   
    11     4    30 1   
    12     4    31 1   
    13     5     6 1   
    14     5    32 1   
    15     5    33 1   
    16     6    34 1   
    17     6    35 1   
    18     7     8 ar  
    19     7    10 ar  
    20     7    44 1   
    21     8     9 ar  
    22     8    36 1   
    23     9    12 ar  
    24     9    43 1   
    25    10    11 ar  
    26    10    37 1   
    27    11    12 ar  
    28    11    16 ar  
    29    12    13 ar  
    30    13    14 ar  
    31    14    15 ar  
    32    15    16 ar  
    33    15    17 1   
    34    16    20 1   
    35    17    18 1   
    36    17    19 1   
    37    20    21 ar  
    38    20    25 ar  
    39    21    24 ar  
    40    21    38 1   
    41    22    23 ar  
    42    22    24 ar  
    43    22    39 1   
    44    23    25 ar  
    45    23    40 1   
    46    24    41 1   
    47    25    42 1   
@<TRIPOS>SUBSTRUCTURE
     1 65Z         1 TEMP              0 ****  ****    0 ROOT
