@<TRIPOS>MOLECULE
660
   60    62     1     0     0
SMALL
abcg2


@<TRIPOS>ATOM
      1 C1          -3.9290     0.6930    -1.0960 c5         1 660       0.342700
      2 C2          -4.7230     0.7600     0.2070 c5         1 660       0.067300
      3 C3          -4.8890     2.2760     0.3640 c5         1 660       0.097300
      4 C4          -3.5290     2.7640    -0.1150 c5         1 660       0.157300
      5 C5          -2.5360     2.8630     1.0300 c3         1 660       0.215600
      6 O6          -3.0930     1.8100    -1.0900 os         1 660      -0.412000
      7 O7          -5.8840     2.7630    -0.4970 oh         1 660      -0.714000
      8 O8          -1.2480     3.0500     0.5030 os         1 660      -0.560400
      9 P9           0.0390     2.4740     1.3680 p5         1 660       1.454800
     10 O10         -0.2080     1.0300     1.7090 o          1 660      -0.861000
     11 O11          0.3570     3.4460     2.4610 o          1 660      -0.861000
     12 O12          1.0810     2.6200     0.1270 os         1 660      -0.697800
     13 N13         -3.1170    -0.5100    -1.2450 n          1 660      -0.311000
     14 N15         -2.6820    -2.5550    -2.2380 ns         1 660      -0.472500
     15 C17         -1.1570    -1.7220    -0.6410 cc         1 660      -0.377200
     16 C18         -1.9630    -0.6540    -0.5260 cd         1 660       0.020600
     17 C19         -3.5240    -1.4780    -2.1410 c          1 660       0.622000
     18 O19         -4.5410    -1.3980    -2.7990 o          1 660      -0.597000
     19 C20         -1.4930    -2.7750    -1.5630 c          1 660       0.592200
     20 O20         -0.8390    -3.7830    -1.7780 o          1 660      -0.578000
     21 O21         -5.9160     0.0460     0.0770 oh         1 660      -0.707000
     22 P22          2.5990     1.9120     0.0560 p5         1 660       1.474400
     23 O23          3.2720     2.5940    -1.1040 o          1 660      -0.838000
     24 O24          3.1920     1.9610     1.4340 o          1 660      -0.838000
     25 O36          4.5240    -0.4900    -0.4240 os         1 660      -0.439000
     26 C37          4.5570    -1.1410     0.8280 c6         1 660       0.144300
     27 C38          4.2120    -2.6300     0.6690 c6         1 660       0.105300
     28 C39          2.9080    -2.8020    -0.0950 c6         1 660       0.125300
     29 C40          2.9650    -2.0180    -1.3980 c6         1 660       0.152300
     30 C41          3.2890    -0.5470    -1.1090 c6         1 660       0.208300
     31 O42          4.0550    -3.2670     1.9190 oh         1 660      -0.726000
     32 O43          2.6620    -4.1510    -0.4220 oh         1 660      -0.680000
     33 O44          1.7680    -2.0980    -2.1270 oh         1 660      -0.715000
     34 C45          2.1560     0.1990    -0.4120 c3         1 660      -0.485400
     35 H1          -4.6120     0.7100    -1.9480 h2         1 660       0.097700
     36 H2          -4.1150     0.3750     1.0360 h1         1 660       0.074700
     37 H3          -5.0790     2.5620     1.4070 h1         1 660       0.048700
     38 H4          -3.6120     3.7370    -0.6110 h1         1 660       0.091700
     39 H5          -2.8340     3.7050     1.6650 h1         1 660       0.011200
     40 H6          -2.5880     1.9630     1.6540 h1         1 660       0.011200
     41 H7          -6.6610     2.1990    -0.4020 ho         1 660       0.502000
     42 H9          -2.9720    -3.2690    -2.8950 hn         1 660       0.317500
     43 H10         -0.2500    -1.7770    -0.0620 ha         1 660       0.250000
     44 H11         -1.6900     0.1480     0.1460 h4         1 660       0.286000
     45 H12         -6.2710    -0.1280     0.9550 ho         1 660       0.498000
     46 H15          5.0100    -3.1110     0.0830 h1         1 660       0.023700
     47 H16          2.0890    -2.4080     0.5250 h1         1 660       0.078700
     48 H17          3.8010    -2.4260    -1.9920 h1         1 660       0.016700
     49 H18          3.4790    -0.0450    -2.0620 h1         1 660       0.096700
     50 H19          4.9100    -3.5850     2.2220 ho         1 660       0.487000
     51 H20          2.4170    -4.6170     0.3830 ho         1 660       0.443000
     52 H21          1.3790    -2.9710    -1.9970 ho         1 660       0.518000
     53 H22          1.7960    -0.3120     0.4810 hc         1 660       0.071700
     54 H23          1.3070     0.2290    -1.0960 hc         1 660       0.071700
     55 H26          7.1340     0.4030     1.9970 ho         1 660       0.467000
     56 C46          5.9590    -0.9920     1.3820 c3         1 660       0.178600
     57 O47          6.2500     0.3600     1.6230 oh         1 660      -0.643000
     58 H24          6.0240    -1.5840     2.3040 h1         1 660      -0.011800
     59 H25          6.6650    -1.4410     0.6670 h1         1 660      -0.011800
     60 H14          3.8460    -0.6770     1.5250 h1         1 660       0.118700
@<TRIPOS>BOND
     1     1     2 1   
     2     1     6 1   
     3     1    13 1   
     4     1    35 1   
     5     2     3 1   
     6     2    21 1   
     7     2    36 1   
     8     3     4 1   
     9     3     7 1   
    10     3    37 1   
    11     4     5 1   
    12     4     6 1   
    13     4    38 1   
    14     5     8 1   
    15     5    39 1   
    16     5    40 1   
    17     7    41 1   
    18     8     9 1   
    19     9    10 1   
    20     9    11 1   
    21     9    12 1   
    22    12    22 1   
    23    13    16 1   
    24    13    17 1   
    25    14    17 1   
    26    14    19 1   
    27    14    42 1   
    28    15    16 2   
    29    15    19 1   
    30    15    43 1   
    31    16    44 1   
    32    17    18 2   
    33    19    20 2   
    34    21    45 1   
    35    22    23 1   
    36    22    24 1   
    37    22    34 1   
    38    25    26 1   
    39    25    30 1   
    40    26    27 1   
    41    26    56 1   
    42    26    60 1   
    43    27    28 1   
    44    27    31 1   
    45    27    46 1   
    46    28    29 1   
    47    28    32 1   
    48    28    47 1   
    49    29    30 1   
    50    29    33 1   
    51    29    48 1   
    52    30    34 1   
    53    30    49 1   
    54    31    50 1   
    55    32    51 1   
    56    33    52 1   
    57    34    53 1   
    58    34    54 1   
    59    55    57 1   
    60    56    57 1   
    61    56    58 1   
    62    56    59 1   
@<TRIPOS>SUBSTRUCTURE
     1 660         1 TEMP              0 ****  ****    0 ROOT
