@<TRIPOS>MOLECULE
660
   60    62     1     0     0
SMALL
No Charge or Current Charge


@<TRIPOS>ATOM
      1 C1          -4.0620     0.7170    -1.1160 c5         1 660       0.342700
      2 C2          -4.6630     0.7290     0.3330 c5         1 660       0.067300
      3 C3          -4.9520     2.2520     0.4630 c5         1 660       0.097300
      4 C4          -3.6390     2.8390    -0.1600 c5         1 660       0.157300
      5 C5          -2.4790     2.9910     0.8720 c3         1 660       0.215600
      6 O6          -3.2660     1.9170    -1.2260 os         1 660      -0.412000
      7 O7          -6.1320     2.5980    -0.2750 oh         1 660      -0.714000
      8 O8          -1.2230     3.0370     0.1830 os         1 660      -0.560400
      9 P9           0.1280     2.7180     0.9960 p5         1 660       1.454800
     10 O10         -0.0150     1.4130     1.7000 o          1 660      -0.861000
     11 O11          0.4530     3.8670     1.8920 o          1 660      -0.861000
     12 O12          1.0560     2.6310    -0.2700 os         1 660      -0.697800
     13 N13         -3.2170    -0.4970    -1.2590 n          1 660      -0.311000
     14 N15         -2.9110    -2.6640    -2.1160 ns         1 660      -0.472500
     15 C17         -1.1830    -1.6840    -0.8520 cc         1 660      -0.377200
     16 C18         -1.9410    -0.5470    -0.6920 cd         1 660       0.020600
     17 C19         -3.7240    -1.5790    -2.0040 c          1 660       0.622000
     18 O19         -4.8220    -1.5750    -2.5380 o          1 660      -0.597000
     19 C20         -1.6640    -2.8320    -1.6080 c          1 660       0.592200
     20 O20         -1.0240    -3.8540    -1.7830 o          1 660      -0.578000
     21 O21         -5.8680    -0.0500     0.4930 oh         1 660      -0.707000
     22 P22          2.5090     2.0720    -0.0030 p5         1 660       1.474400
     23 O23          3.4390     2.6410    -1.0260 o          1 660      -0.838000
     24 O24          3.0310     2.2690     1.3820 o          1 660      -0.838000
     25 O36          4.5760    -0.4410    -0.1840 os         1 660      -0.439000
     26 C37          4.4830    -1.2830     1.0050 c6         1 660       0.144300
     27 C38          4.1980    -2.7670     0.5940 c6         1 660       0.105300
     28 C39          2.9360    -2.8270    -0.3130 c6         1 660       0.125300
     29 C40          3.1160    -1.8900    -1.5400 c6         1 660       0.152300
     30 C41          3.4200    -0.4260    -1.0630 c6         1 660       0.208300
     31 O42          4.0140    -3.6270     1.7390 oh         1 660      -0.726000
     32 O43          2.6960    -4.1820    -0.7390 oh         1 660      -0.680000
     33 O44          1.9630    -1.9820    -2.3950 oh         1 660      -0.715000
     34 C45          2.2370     0.3030    -0.3610 c3         1 660      -0.485400
     35 H1          -4.8490     0.7150    -1.8810 h2         1 660       0.097700
     36 H2          -3.9030     0.4150     1.0640 h1         1 660       0.074700
     37 H3          -5.0640     2.5500     1.5150 h1         1 660       0.048700
     38 H4          -3.8200     3.8280    -0.6000 h1         1 660       0.091700
     39 H5          -2.6350     3.9090     1.4530 h1         1 660       0.011200
     40 H6          -2.5080     2.1450     1.5710 h1         1 660       0.011200
     41 H7          -6.6960     1.7870    -0.2210 ho         1 660       0.502000
     42 H9          -3.2780    -3.4360    -2.6490 hn         1 660       0.317500
     43 H10         -0.1880    -1.7770    -0.4360 ha         1 660       0.250000
     44 H11         -1.6250     0.3450    -0.1520 h4         1 660       0.286000
     45 H12         -5.8810    -0.3970     1.4170 ho         1 660       0.498000
     46 H15          5.0560    -3.1250     0.0050 h1         1 660       0.023700
     47 H16          2.0800    -2.4690     0.2790 h1         1 660       0.078700
     48 H17          3.9970    -2.2390    -2.1000 h1         1 660       0.016700
     49 H18          3.6890     0.1560    -1.9580 h1         1 660       0.096700
     50 H19          4.9070    -3.8350     2.1010 ho         1 660       0.487000
     51 H20          2.9170    -4.7290     0.0490 ho         1 660       0.443000
     52 H21          1.6670    -2.9200    -2.2940 ho         1 660       0.518000
     53 H22          1.9340    -0.1710     0.5740 hc         1 660       0.071700
     54 H23          1.3630     0.2930    -1.0170 hc         1 660       0.071700
     55 H26          7.0600     0.1690     2.5580 ho         1 660       0.467000
     56 C46          5.8260    -1.1530     1.8010 c3         1 660       0.178600
     57 O47          6.1750     0.2000     2.1310 oh         1 660      -0.643000
     58 H24          5.7430    -1.7390     2.7250 h1         1 660      -0.011800
     59 H25          6.6290    -1.6020     1.2020 h1         1 660      -0.011800
     60 H14          3.6770    -0.9190     1.6560 h1         1 660       0.118700
@<TRIPOS>BOND
     1     1     2 1   
     2     1     6 1   
     3     1    13 1   
     4     1    35 1   
     5     2     3 1   
     6     2    21 1   
     7     2    36 1   
     8     3     4 1   
     9     3     7 1   
    10     3    37 1   
    11     4     5 1   
    12     4     6 1   
    13     4    38 1   
    14     5     8 1   
    15     5    39 1   
    16     5    40 1   
    17     7    41 1   
    18     8     9 1   
    19     9    10 1   
    20     9    11 1   
    21     9    12 1   
    22    12    22 1   
    23    13    16 1   
    24    13    17 1   
    25    14    17 1   
    26    14    19 1   
    27    14    42 1   
    28    15    16 2   
    29    15    19 1   
    30    15    43 1   
    31    16    44 1   
    32    17    18 2   
    33    19    20 2   
    34    21    45 1   
    35    22    23 1   
    36    22    24 1   
    37    22    34 1   
    38    25    26 1   
    39    25    30 1   
    40    26    27 1   
    41    26    56 1   
    42    26    60 1   
    43    27    28 1   
    44    27    31 1   
    45    27    46 1   
    46    28    29 1   
    47    28    32 1   
    48    28    47 1   
    49    29    30 1   
    50    29    33 1   
    51    29    48 1   
    52    30    34 1   
    53    30    49 1   
    54    31    50 1   
    55    32    51 1   
    56    33    52 1   
    57    34    53 1   
    58    34    54 1   
    59    55    57 1   
    60    56    57 1   
    61    56    58 1   
    62    56    59 1   
@<TRIPOS>SUBSTRUCTURE
     1 660         1 TEMP              0 ****  ****    0 ROOT
