@<TRIPOS>MOLECULE
662
   72    76     1     0     0
SMALL
No Charge or Current Charge


@<TRIPOS>ATOM
      1 N1           2.5190    -2.1890    -0.3420 na         1 662      -0.307300
      2 C2           2.7190    -3.5920     0.0400 c5         1 662       0.291300
      3 C3           2.7440    -3.9330     1.5740 c5         1 662       0.137300
      4 C4           3.1980    -1.0750     0.0830 ca         1 662       0.114500
      5 C5           2.6750     0.0010    -0.5890 ca         1 662      -0.095600
      6 N6           1.6570    -0.3600    -1.4640 nc         1 662      -0.555100
      7 C7          -3.3540     0.0360    -0.8310 ca         1 662      -0.227600
      8 C8           1.2200    -4.0100     1.8750 c5         1 662      -0.090700
      9 C9           1.6020    -1.6930    -1.2890 cd         1 662       0.404700
     10 O10          1.6290    -4.3800    -0.4890 os         1 662      -0.448000
     11 O11          3.3870    -5.1890     1.8710 oh         1 662      -0.712000
     12 C12         -4.3040     2.2580    -0.4210 ca         1 662       0.101100
     13 C13         -4.4190     0.9570    -0.9500 ca         1 662       0.125100
     14 C14          0.5750    -2.6340     2.2190 c3         1 662      -0.087100
     15 C15          0.7140    -4.7440     0.5790 c5         1 662       0.201500
     16 C16         -2.1680     0.4650    -0.1760 ca         1 662      -0.072000
     17 C17         -3.4900    -1.3700    -1.3820 c          1 662       0.631700
     18 C18          3.2170     1.2790    -0.3370 ca         1 662       0.448900
     19 N19          4.2050    -0.9390     0.9690 nb         1 662      -0.244000
     20 O20         -5.3500     3.1300    -0.5400 oh         1 662      -0.534100
     21 C21         -2.0370     1.7690     0.3680 cp         1 662      -0.039000
     22 N22          4.2240     1.4420     0.5420 nb         1 662      -0.295000
     23 C23         -3.1310     2.6570     0.2330 ca         1 662      -0.093000
     24 C24          4.6650     0.3200     1.1560 ca         1 662       0.182900
     25 C25         -0.7830     2.1910     1.0750 cp         1 662      -0.036000
     26 C26         -0.6990    -4.2960     0.1870 c2         1 662      -0.216200
     27 O27         -4.4930    -1.7360    -1.9840 o          1 662      -0.643100
     28 N28         -2.4380    -2.2220    -1.1640 ns         1 662      -0.489900
     29 C29         -1.0750    -4.1890    -1.1030 c2         1 662      -0.230200
     30 C30         -0.3260     3.5340     1.0220 ca         1 662      -0.076500
     31 C31         -0.0180     1.2620     1.8290 ca         1 662      -0.076500
     32 N32          2.7350     2.3990    -1.0020 nu         1 662      -0.905100
     33 O33         -5.5810     0.5960    -1.5760 oh         1 662      -0.567100
     34 C34          1.5840     2.9890     2.4240 ca         1 662       0.177000
     35 C35          1.1570     1.6560     2.4940 ca         1 662      -0.154000
     36 C36          0.8430     3.9300     1.6950 ca         1 662      -0.154000
     37 F37          2.7100     3.3700     3.0650 f          1 662      -0.174000
     38 C38         -2.3950    -3.6220    -1.5650 c3         1 662       0.133200
     39 C39          3.2080     3.7830    -0.8920 c3         1 662       0.226800
     40 C40          2.2980     4.7250    -1.7040 c3         1 662      -0.097400
     41 C41          2.7090     6.2060    -1.5870 c3         1 662      -0.087100
     42 H2           3.6620    -3.8860    -0.4360 h2         1 662       0.097700
     43 H3           3.2170    -3.1280     2.1540 h1         1 662       0.085700
     44 H8           1.0420    -4.6390     2.7550 hc         1 662       0.086700
     45 H9           0.9290    -2.3570    -1.8180 h5         1 662       0.074800
     46 HO11         4.3610    -5.0470     1.8070 ho         1 662       0.520000
     47 H14          0.4880    -1.9820     1.3450 hc         1 662       0.042033
     48 H14A        -0.4320    -2.7610     2.6350 hc         1 662       0.042033
     49 H14B         1.1650    -2.1020     2.9750 hc         1 662       0.042033
     50 H15          0.7670    -5.8340     0.7100 h1         1 662       0.081700
     51 H16         -1.3180    -0.2050    -0.0900 ha         1 662       0.120000
     52 HO20        -6.0580     2.6430    -1.0210 ho         1 662       0.487000
     53 H23         -3.0780     3.6590     0.6500 ha         1 662       0.133000
     54 H24          5.4780     0.4420     1.8700 h5         1 662       0.045100
     55 H26         -1.4140    -4.0300     0.9660 ha         1 662       0.178000
     56 HN28        -1.6500    -1.8550    -0.6520 hn         1 662       0.317500
     57 H29         -0.4010    -4.4570    -1.9190 ha         1 662       0.192000
     58 H30         -0.8740     4.2740     0.4450 ha         1 662       0.115500
     59 H31         -0.3460     0.2310     1.9150 ha         1 662       0.115500
     60 HN32         1.9580     2.1990    -1.6310 hn         1 662       0.514000
     61 HO33        -5.4460    -0.3460    -1.8740 ho         1 662       0.526000
     62 H35          1.7320     0.9320     3.0640 ha         1 662       0.132500
     63 H36          1.1800     4.9620     1.6440 ha         1 662       0.132500
     64 H38         -3.2320    -4.1630    -1.1030 h1         1 662       0.067700
     65 H38A        -2.4880    -3.6920    -2.6580 h1         1 662       0.067700
     66 H39          3.2050     4.1000     0.1610 h1         1 662       0.057700
     67 H39A         4.2400     3.8620    -1.2610 h1         1 662       0.057700
     68 H40          2.3190     4.4300    -2.7600 hc         1 662       0.045200
     69 H40A         1.2620     4.6180    -1.3590 hc         1 662       0.045200
     70 H41          2.6620     6.5400    -0.5430 hc         1 662       0.037700
     71 H41A         3.7320     6.3550    -1.9540 hc         1 662       0.037700
     72 H41B         2.0360     6.8370    -2.1800 hc         1 662       0.037700
@<TRIPOS>BOND
     1     1     2 1   
     2     1     4 1   
     3     1     9 1   
     4     2     3 1   
     5     2    10 1   
     6     2    42 1   
     7     3     8 1   
     8     3    11 1   
     9     3    43 1   
    10     4     5 ar  
    11     4    19 ar  
    12     5     6 1   
    13     5    18 ar  
    14     6     9 2   
    15     7    13 ar  
    16     7    16 ar  
    17     7    17 1   
    18     8    14 1   
    19     8    15 1   
    20     8    44 1   
    21     9    45 1   
    22    10    15 1   
    23    11    46 1   
    24    12    13 ar  
    25    12    20 1   
    26    12    23 ar  
    27    13    33 1   
    28    14    47 1   
    29    14    48 1   
    30    14    49 1   
    31    15    26 1   
    32    15    50 1   
    33    16    21 ar  
    34    16    51 1   
    35    17    27 2   
    36    17    28 1   
    37    18    22 ar  
    38    18    32 1   
    39    19    24 ar  
    40    20    52 1   
    41    21    23 ar  
    42    21    25 1   
    43    22    24 ar  
    44    23    53 1   
    45    24    54 1   
    46    25    30 ar  
    47    25    31 ar  
    48    26    29 2   
    49    26    55 1   
    50    28    38 1   
    51    28    56 1   
    52    29    38 1   
    53    29    57 1   
    54    30    36 ar  
    55    30    58 1   
    56    31    35 ar  
    57    31    59 1   
    58    32    39 1   
    59    32    60 1   
    60    33    61 1   
    61    34    35 ar  
    62    34    36 ar  
    63    34    37 1   
    64    35    62 1   
    65    36    63 1   
    66    38    64 1   
    67    38    65 1   
    68    39    40 1   
    69    39    66 1   
    70    39    67 1   
    71    40    41 1   
    72    40    68 1   
    73    40    69 1   
    74    41    70 1   
    75    41    71 1   
    76    41    72 1   
@<TRIPOS>SUBSTRUCTURE
     1 662         1 TEMP              0 ****  ****    0 ROOT
