@<TRIPOS>MOLECULE
662
   72    76     1     0     0
SMALL
abcg2


@<TRIPOS>ATOM
      1 N1           2.3500    -1.9930    -0.3690 na         1 662      -0.307300
      2 C2           2.6320    -3.4040    -0.0930 c5         1 662       0.291300
      3 C3           2.7460    -3.6950     1.4140 c5         1 662       0.137300
      4 C4           3.1620    -0.9430    -0.0470 ca         1 662       0.114500
      5 C5           2.5320     0.1780    -0.5630 ca         1 662      -0.095600
      6 N6           1.3720    -0.1660    -1.1970 nc         1 662      -0.555100
      7 C7          -3.3520    -0.0960    -0.8560 ca         1 662      -0.227600
      8 C8           1.3070    -4.0390     1.7860 c5         1 662      -0.090700
      9 C9           1.3030    -1.4600    -1.0690 cd         1 662       0.404700
     10 O10          1.5870    -4.1860    -0.5660 os         1 662      -0.448000
     11 O11          3.5370    -4.8370     1.6200 oh         1 662      -0.712000
     12 C12         -4.2640     2.1350    -0.7320 ca         1 662       0.101100
     13 C13         -4.3690     0.8050    -1.1700 ca         1 662       0.125100
     14 C14          0.4960    -2.8150     2.1970 c3         1 662      -0.087100
     15 C15          0.8310    -4.7540     0.5060 c5         1 662       0.201500
     16 C16         -2.2050     0.3530    -0.1970 ca         1 662      -0.072000
     17 C17         -3.5190    -1.5120    -1.2770 c          1 662       0.631700
     18 C18          3.1920     1.4090    -0.3790 ca         1 662       0.448900
     19 N19          4.3260    -0.9650     0.6050 nb         1 662      -0.244000
     20 O20         -5.2470     3.0230    -0.9730 oh         1 662      -0.534100
     21 C21         -2.0810     1.6690     0.2200 cp         1 662      -0.039000
     22 N22          4.3590     1.4020     0.2750 nb         1 662      -0.295000
     23 C23         -3.1410     2.5460    -0.0410 ca         1 662      -0.093000
     24 C24          4.8450     0.2440     0.7190 ca         1 662       0.182900
     25 C25         -0.8660     2.1340     0.9190 cp         1 662      -0.036000
     26 C26         -0.6360    -4.6350     0.2690 c2         1 662      -0.216200
     27 O27         -4.2590    -1.8080    -2.2220 o          1 662      -0.643100
     28 N28         -2.8490    -2.4170    -0.5610 ns         1 662      -0.489900
     29 C29         -1.2250    -4.1250    -0.8050 c2         1 662      -0.230200
     30 C30         -0.4480     3.4640     0.8400 ca         1 662      -0.076500
     31 C31         -0.1000     1.2570     1.6900 ca         1 662      -0.076500
     32 N32          2.7050     2.5540    -0.8580 nu         1 662      -0.905100
     33 O33         -5.4700     0.4750    -1.8580 oh         1 662      -0.567100
     34 C34          1.4100     3.0040     2.2550 ca         1 662       0.177000
     35 C35          1.0410     1.6770     2.3520 ca         1 662      -0.154000
     36 C36          0.6790     3.9090     1.5130 ca         1 662      -0.154000
     37 F37          2.5100     3.4250     2.8980 f          1 662      -0.174000
     38 C38         -2.6930    -3.8300    -0.8650 c3         1 662       0.133200
     39 C39          3.3530     3.8380    -0.7070 c3         1 662       0.226800
     40 C40          2.6090     4.9030    -1.4960 c3         1 662      -0.097400
     41 C41          3.2350     6.2770    -1.3110 c3         1 662      -0.087100
     42 H2           3.5560    -3.6580    -0.6220 h2         1 662       0.097700
     43 H3           3.1280    -2.8330     1.9710 h1         1 662       0.085700
     44 H8           1.3030    -4.7440     2.6190 hc         1 662       0.086700
     45 H9           0.5130    -2.0690    -1.4730 h5         1 662       0.074800
     46 HO11         4.4520    -4.6240     1.4100 ho         1 662       0.520000
     47 H14          0.4170    -2.0630     1.4120 hc         1 662       0.042033
     48 H14A        -0.5180    -3.0920     2.4860 hc         1 662       0.042033
     49 H14B         0.9610    -2.3360     3.0590 hc         1 662       0.042033
     50 H15          1.0910    -5.8170     0.5810 h1         1 662       0.081700
     51 H16         -1.3700    -0.3220    -0.0630 ha         1 662       0.120000
     52 HO20        -5.9610     2.6100    -1.4740 ho         1 662       0.487000
     53 H23         -3.0980     3.5750     0.2960 ha         1 662       0.133000
     54 H24          5.7950     0.3080     1.2390 h5         1 662       0.045100
     55 H26         -1.2480    -4.9890     1.0960 ha         1 662       0.178000
     56 HN28        -2.3990    -2.1100     0.2860 hn         1 662       0.317500
     57 H29         -0.6420    -3.7910    -1.6560 ha         1 662       0.192000
     58 H30         -0.9970     4.1730     0.2340 ha         1 662       0.115500
     59 H31         -0.4040     0.2250     1.8030 ha         1 662       0.115500
     60 HN32         1.7810     2.5290    -1.2590 hn         1 662       0.514000
     61 HO33        -5.3240    -0.4250    -2.2260 ho         1 662       0.526000
     62 H35          1.6250     0.9850     2.9450 ha         1 662       0.132500
     63 H36          0.9880     4.9440     1.4450 ha         1 662       0.132500
     64 H38         -3.2500    -4.4300    -0.1420 h1         1 662       0.067700
     65 H38A        -3.1080    -4.0220    -1.8530 h1         1 662       0.067700
     66 H39          3.4040     4.1230     0.3490 h1         1 662       0.057700
     67 H39A         4.3850     3.7680    -1.0600 h1         1 662       0.057700
     68 H40          2.6050     4.6340    -2.5550 hc         1 662       0.045200
     69 H40A         1.5630     4.9310    -1.1760 hc         1 662       0.045200
     70 H41          3.2090     6.5850    -0.2640 hc         1 662       0.037700
     71 H41A         4.2770     6.2850    -1.6330 hc         1 662       0.037700
     72 H41B         2.7040     7.0310    -1.8910 hc         1 662       0.037700
@<TRIPOS>BOND
     1     1     2 1   
     2     1     4 1   
     3     1     9 1   
     4     2     3 1   
     5     2    10 1   
     6     2    42 1   
     7     3     8 1   
     8     3    11 1   
     9     3    43 1   
    10     4     5 ar  
    11     4    19 ar  
    12     5     6 1   
    13     5    18 ar  
    14     6     9 2   
    15     7    13 ar  
    16     7    16 ar  
    17     7    17 1   
    18     8    14 1   
    19     8    15 1   
    20     8    44 1   
    21     9    45 1   
    22    10    15 1   
    23    11    46 1   
    24    12    13 ar  
    25    12    20 1   
    26    12    23 ar  
    27    13    33 1   
    28    14    47 1   
    29    14    48 1   
    30    14    49 1   
    31    15    26 1   
    32    15    50 1   
    33    16    21 ar  
    34    16    51 1   
    35    17    27 2   
    36    17    28 1   
    37    18    22 ar  
    38    18    32 1   
    39    19    24 ar  
    40    20    52 1   
    41    21    23 ar  
    42    21    25 1   
    43    22    24 ar  
    44    23    53 1   
    45    24    54 1   
    46    25    30 ar  
    47    25    31 ar  
    48    26    29 2   
    49    26    55 1   
    50    28    38 1   
    51    28    56 1   
    52    29    38 1   
    53    29    57 1   
    54    30    36 ar  
    55    30    58 1   
    56    31    35 ar  
    57    31    59 1   
    58    32    39 1   
    59    32    60 1   
    60    33    61 1   
    61    34    35 ar  
    62    34    36 ar  
    63    34    37 1   
    64    35    62 1   
    65    36    63 1   
    66    38    64 1   
    67    38    65 1   
    68    39    40 1   
    69    39    66 1   
    70    39    67 1   
    71    40    41 1   
    72    40    68 1   
    73    40    69 1   
    74    41    70 1   
    75    41    71 1   
    76    41    72 1   
@<TRIPOS>SUBSTRUCTURE
     1 662         1 TEMP              0 ****  ****    0 ROOT
