@<TRIPOS>MOLECULE
663
   53    56     1     0     0
SMALL
No Charge or Current Charge


@<TRIPOS>ATOM
      1 C34         10.3370     1.1160    18.7310 c3         1 663       0.059900
      2 N33          9.7290     1.2080    17.3930 na         1 663      -0.172500
      3 C32          9.9110     0.3200    16.3550 cc         1 663      -0.228000
      4 C31          9.1580     0.8050    15.3170 cd         1 663       0.231900
      5 N30          8.5150     1.9680    15.6850 nd         1 663      -0.669000
      6 C29          8.8690     2.1940    16.9420 cc         1 663       0.399800
      7 C28          8.4030     3.3680    17.7680 c3         1 663      -0.035400
      8 C25          7.3840     3.0440    18.8420 cc         1 663      -0.103300
      9 C26          6.9540     4.0170    19.7960 cc         1 663       0.131000
     10 Cl3          7.5930     5.6400    19.7120 cl         1 663      -0.157000
     11 C24          6.7710     1.8280    19.0200 cd         1 663      -0.244000
     12 S23          5.6330     1.8430    20.3690 ss         1 663       0.335000
     13 C22          6.0250     3.5330    20.7000 cd         1 663      -0.289600
     14 C20          5.3570     4.2290    21.8300 c          1 663       0.653700
     15 O21          4.5090     3.6700    22.5170 o          1 663      -0.593100
     16 N19          5.7760     5.5220    22.0810 ns         1 663      -0.137000
     17 C12          5.2770     6.4780    23.0060 ca         1 663      -0.020000
     18 C13          3.8970     6.8060    22.9780 ca         1 663       0.160100
     19 O17          3.0940     6.2260    22.0090 os         1 663      -0.321100
     20 C18          1.6830     6.4880    21.9070 c3         1 663       0.148900
     21 C14          3.3750     7.7390    23.8950 ca         1 663      -0.169000
     22 C15          4.2220     8.3520    24.8200 ca         1 663       0.148000
     23 Cl2          3.5670     9.5240    25.9560 cl         1 663      -0.200000
     24 C16          5.5910     8.0560    24.8400 ca         1 663      -0.114000
     25 C11          6.1550     7.1180    23.9350 ca         1 663      -0.147600
     26 C9           7.6560     6.8180    23.9830 c          1 663       0.630700
     27 O10          8.2270     6.1550    23.1270 o          1 663      -0.548100
     28 N7           8.3340     7.3370    25.0660 ns         1 663      -0.323900
     29 C1           9.6990     7.3070    25.3680 ca         1 663       0.484900
     30 C6          10.1420     7.1250    26.6880 ca         1 663      -0.199000
     31 C5          11.5200     7.1770    26.9620 ca         1 663      -0.038000
     32 C4          12.3960     7.4330    25.8950 ca         1 663       0.030000
     33 Cl1         14.1350     7.5140    26.1730 cl         1 663      -0.188000
     34 C3          11.8580     7.6360    24.6070 ca         1 663       0.384900
     35 N2          10.5280     7.5880    24.3410 nb         1 663      -0.667000
     36 H341        10.9580     0.2140    18.7970 h1         1 663       0.054367
     37 H342        10.9630     1.9980    18.9130 h1         1 663       0.054367
     38 H343         9.5500     1.0660    19.4930 h1         1 663       0.054367
     39 H32         10.5390    -0.5600    16.4220 h4         1 663       0.155000
     40 H31          9.0450     0.3810    14.3260 h4         1 663       0.040100
     41 H281         9.2830     3.8340    18.2250 hc         1 663       0.079700
     42 H282         7.9830     4.1260    17.0960 hc         1 663       0.079700
     43 H24          6.8980     0.9180    18.4460 h4         1 663       0.163000
     44 HN19         6.5660     5.8310    21.5330 hn         1 663       0.193000
     45 H181         1.1640     6.1950    22.8280 h1         1 663       0.048367
     46 H182         1.4960     7.5520    21.7180 h1         1 663       0.048367
     47 H183         1.2510     5.9150    21.0770 h1         1 663       0.048367
     48 H14          2.3250     8.0100    23.8980 ha         1 663       0.139000
     49 H16          6.2020     8.5830    25.5680 ha         1 663       0.137000
     50 HN7          7.7640     7.7950    25.7620 hn         1 663       0.164000
     51 H6           9.4260     6.9400    27.4850 ha         1 663       0.129000
     52 H5          11.8980     7.0280    27.9710 ha         1 663       0.137000
     53 H3          12.5120     7.8500    23.7630 h4         1 663       0.041100
@<TRIPOS>BOND
     1     1     2 1   
     2     1    36 1   
     3     1    37 1   
     4     1    38 1   
     5     2     3 1   
     6     2     6 1   
     7     3     4 2   
     8     3    39 1   
     9     4     5 1   
    10     4    40 1   
    11     5     6 2   
    12     6     7 1   
    13     7     8 1   
    14     7    41 1   
    15     7    42 1   
    16     8     9 1   
    17     8    11 2   
    18     9    10 1   
    19     9    13 2   
    20    11    12 1   
    21    11    43 1   
    22    12    13 1   
    23    13    14 1   
    24    14    15 2   
    25    14    16 1   
    26    16    17 1   
    27    16    44 1   
    28    17    18 ar  
    29    17    25 ar  
    30    18    19 1   
    31    18    21 ar  
    32    19    20 1   
    33    20    45 1   
    34    20    46 1   
    35    20    47 1   
    36    21    22 ar  
    37    21    48 1   
    38    22    23 1   
    39    22    24 ar  
    40    24    25 ar  
    41    24    49 1   
    42    25    26 1   
    43    26    27 2   
    44    26    28 1   
    45    28    29 1   
    46    28    50 1   
    47    29    30 ar  
    48    29    35 ar  
    49    30    31 ar  
    50    30    51 1   
    51    31    32 ar  
    52    31    52 1   
    53    32    33 1   
    54    32    34 ar  
    55    34    35 ar  
    56    34    53 1   
@<TRIPOS>SUBSTRUCTURE
     1 663         1 TEMP              0 ****  ****    0 ROOT
