@<TRIPOS>MOLECULE
663
   53    56     1     0     0
SMALL
abcg2


@<TRIPOS>ATOM
      1 C34         10.4410     1.2720    18.7550 c3         1 663       0.059900
      2 N33          9.7260     1.1820    17.4910 na         1 663      -0.172500
      3 C32          9.7950     0.1270    16.6090 cc         1 663      -0.228000
      4 C31          8.9400     0.4350    15.5880 cd         1 663       0.231900
      5 N30          8.3460     1.6560    15.8260 nd         1 663      -0.669000
      6 C29          8.8380     2.0810    16.9780 cc         1 663       0.399800
      7 C28          8.4640     3.3570    17.6520 c3         1 663      -0.035400
      8 C25          7.5530     3.1800    18.8400 cc         1 663      -0.103300
      9 C26          7.1370     4.2510    19.6820 cc         1 663       0.131000
     10 CL3          7.6760     5.8690    19.3640 cl         1 663      -0.157000
     11 C24          7.0060     2.0000    19.2630 cd         1 663      -0.244000
     12 S23          6.0180     2.1740    20.6470 ss         1 663       0.335000
     13 C22          6.3010     3.8810    20.7130 cd         1 663      -0.289600
     14 C20          5.6110     4.5990    21.8050 c          1 663       0.653700
     15 O21          4.8490     3.9900    22.5520 o          1 663      -0.593100
     16 N19          5.8660     5.9300    21.9280 ns         1 663      -0.137000
     17 C12          5.2870     6.7400    22.9250 ca         1 663      -0.020000
     18 C13          3.8870     6.8890    22.9800 ca         1 663       0.160100
     19 O17          3.1790     6.2650    22.0220 os         1 663      -0.321100
     20 C18          1.7510     6.3310    22.0650 c3         1 663       0.148900
     21 C14          3.3120     7.6840    23.9710 ca         1 663      -0.169000
     22 C15          4.1330     8.3510    24.8670 ca         1 663       0.148000
     23 CL2          3.3990     9.3750    26.0800 cl         1 663      -0.200000
     24 C16          5.5100     8.2460    24.8170 ca         1 663      -0.114000
     25 C11          6.0870     7.4310    23.8400 ca         1 663      -0.147600
     26 C9           7.5810     7.3380    23.7380 c          1 663       0.630700
     27 O10          8.1500     7.3470    22.6560 o          1 663      -0.548100
     28 N7           8.2120     7.2410    24.9480 ns         1 663      -0.323900
     29 C1           9.5860     7.2020    25.2200 ca         1 663       0.484900
     30 C6           9.9980     6.6120    26.4210 ca         1 663      -0.199000
     31 C5          11.3450     6.5950    26.7230 ca         1 663      -0.038000
     32 C4          12.2290     7.1600    25.8120 ca         1 663       0.030000
     33 CL1         13.9430     7.1660    26.1250 cl         1 663      -0.188000
     34 C3          11.7370     7.7260    24.6460 ca         1 663       0.384900
     35 N2          10.4350     7.7540    24.3600 nb         1 663      -0.667000
     36 H341        11.3670     0.7080    18.6770 h1         1 663       0.054367
     37 H342        10.6790     2.3110    18.9730 h1         1 663       0.054367
     38 H343         9.8390     0.8670    19.5690 h1         1 663       0.054367
     39 H32         10.4390    -0.7170    16.7900 h4         1 663       0.155000
     40 H31          8.7250    -0.1400    14.7020 h4         1 663       0.040100
     41 H281         9.3610     3.8950    17.9710 hc         1 663       0.079700
     42 H282         7.9750     3.9910    16.9110 hc         1 663       0.079700
     43 H24          7.1420     1.0250    18.8210 h4         1 663       0.163000
     44 HN19         6.6940     6.3060    21.4880 hn         1 663       0.193000
     45 H181         1.3730     5.9100    22.9990 h1         1 663       0.048367
     46 H182         1.4030     7.3600    21.9550 h1         1 663       0.048367
     47 H183         1.4060     5.7340    21.2250 h1         1 663       0.048367
     48 H14          2.2420     7.8080    24.0300 ha         1 663       0.139000
     49 H16          6.1270     8.8030    25.5070 ha         1 663       0.137000
     50 HN7          7.6160     7.0560    25.7420 hn         1 663       0.164000
     51 H6           9.2730     6.1760    27.0960 ha         1 663       0.129000
     52 H5          11.7040     6.1490    27.6410 ha         1 663       0.137000
     53 H3          12.4090     8.1780    23.9280 h4         1 663       0.041100
@<TRIPOS>BOND
     1     1     2 1   
     2     1    36 1   
     3     1    37 1   
     4     1    38 1   
     5     2     3 1   
     6     2     6 1   
     7     3     4 2   
     8     3    39 1   
     9     4     5 1   
    10     4    40 1   
    11     5     6 2   
    12     6     7 1   
    13     7     8 1   
    14     7    41 1   
    15     7    42 1   
    16     8     9 1   
    17     8    11 2   
    18     9    10 1   
    19     9    13 2   
    20    11    12 1   
    21    11    43 1   
    22    12    13 1   
    23    13    14 1   
    24    14    15 2   
    25    14    16 1   
    26    16    17 1   
    27    16    44 1   
    28    17    18 ar  
    29    17    25 ar  
    30    18    19 1   
    31    18    21 ar  
    32    19    20 1   
    33    20    45 1   
    34    20    46 1   
    35    20    47 1   
    36    21    22 ar  
    37    21    48 1   
    38    22    23 1   
    39    22    24 ar  
    40    24    25 ar  
    41    24    49 1   
    42    25    26 1   
    43    26    27 2   
    44    26    28 1   
    45    28    29 1   
    46    28    50 1   
    47    29    30 ar  
    48    29    35 ar  
    49    30    31 ar  
    50    30    51 1   
    51    31    32 ar  
    52    31    52 1   
    53    32    33 1   
    54    32    34 ar  
    55    34    35 ar  
    56    34    53 1   
@<TRIPOS>SUBSTRUCTURE
     1 663         1 TEMP              0 ****  ****    0 ROOT
