@<TRIPOS>MOLECULE
664
   62    66     1     0     0
SMALL
No Charge or Current Charge


@<TRIPOS>ATOM
      1 N1           0.1850     1.9250    -0.7720 nb         1 664      -0.232000
      2 C2           0.5550     0.6530    -0.5450 ca         1 664       0.393900
      3 C6           1.1680     2.8430    -0.7720 ca         1 664       0.146900
      4 N3           1.8040     0.2070    -0.3430 nb         1 664      -0.269000
      5 N7          -0.4090    -0.3440    -0.5610 nu         1 664      -0.935900
      6 C4           2.7990     1.1190    -0.3450 ca         1 664       0.261500
      7 C5           2.5070     2.4800    -0.5580 ca         1 664      -0.258000
      8 C26          4.1770     0.6600    -0.1210 cc         1 664      -0.273500
      9 C8          -1.8060    -0.3940    -0.6710 ca         1 664       0.362000
     10 C10         -3.7980    -1.6980    -1.2110 ca         1 664      -0.044000
     11 C9          -2.3910    -1.6120    -1.0980 ca         1 664      -0.008900
     12 C11         -4.5970    -0.5890    -0.8930 ca         1 664      -0.195000
     13 C13         -2.6240     0.6970    -0.3360 ca         1 664      -0.172000
     14 C12         -4.0180     0.6130    -0.4500 ca         1 664       0.340000
     15 O14         -1.5460    -2.6840    -1.3890 os         1 664      -0.402100
     16 N15         -4.8140     1.7300    -0.1110 nh         1 664      -0.787400
     17 C16         -6.2270     1.5680     0.3640 c6         1 664       0.197300
     18 C17         -6.7300     2.8020     1.1820 c6         1 664       0.156800
     19 N18         -6.5460     4.0940     0.4540 n3         1 664      -0.713600
     20 C19         -5.1130     4.2540     0.0610 c6         1 664       0.156800
     21 C20         -4.5760     3.0500    -0.7800 c6         1 664       0.197300
     22 C21         -7.0630     5.2540     1.2110 c3         1 664       0.152100
     23 C22         -1.9960    -3.9800    -1.8400 c3         1 664       0.508000
     24 F23         -2.6660    -3.9060    -3.0130 f          1 664      -0.110000
     25 F24         -0.9440    -4.8040    -2.0400 f          1 664      -0.110000
     26 F25         -2.8010    -4.5820    -0.9350 f          1 664      -0.110000
     27 N27          4.6430    -0.5510     0.4160 na         1 664       0.077000
     28 C28          5.2680     1.3300    -0.6160 cd         1 664      -0.061000
     29 C29          6.4180     0.5570    -0.3530 cd         1 664      -0.240600
     30 C30          6.0360    -0.5910     0.2850 cc         1 664      -0.115300
     31 C31          7.0100    -1.6220     0.7930 c6         1 664      -0.026100
     32 C32          8.3400    -1.5370     0.0030 c6         1 664       0.114000
     33 N33          8.7130    -0.1640    -0.3990 ns         1 664      -0.509900
     34 C34          7.8350     0.8640    -0.6680 c          1 664       0.606600
     35 O35          8.2180     1.9220    -1.1400 o          1 664      -0.561000
     36 C36          3.8260    -1.5860     1.0730 c3         1 664       0.060900
     37 H6           0.8790     3.8780    -0.9440 h4         1 664       0.024100
     38 H7          -0.0050    -1.2760    -0.6480 hn         1 664       0.520000
     39 H5           3.2820     3.2400    -0.5490 ha         1 664       0.144000
     40 H13         -2.1890     1.6100     0.0450 ha         1 664       0.146000
     41 H10         -4.2900    -2.6070    -1.5430 ha         1 664       0.131000
     42 HA          -5.6750    -0.6720    -0.9970 ha         1 664       0.123000
     43 H161        -6.8940     1.4230    -0.4980 h1         1 664       0.049450
     44 H162        -6.3140     0.6750     1.0010 h1         1 664       0.049450
     45 H201        -3.5040     3.2100    -0.9640 h1         1 664       0.049450
     46 H202        -5.0740     3.0590    -1.7610 h1         1 664       0.049450
     47 H171        -7.7910     2.6490     1.4250 h1         1 664       0.040950
     48 H172        -6.1850     2.8290     2.1370 h1         1 664       0.040950
     49 H191        -4.9790     5.1750    -0.5250 h1         1 664       0.040950
     50 H192        -4.4860     4.3550     0.9590 h1         1 664       0.040950
     51 H211        -6.5200     5.3800     2.1570 h1         1 664       0.032700
     52 H212        -6.9540     6.1780     0.6270 h1         1 664       0.032700
     53 H213        -8.1290     5.1230     1.4410 h1         1 664       0.032700
     54 H28          5.2630     2.2820    -1.1410 ha         1 664       0.150000
     55 H361         3.3260    -2.1940     0.3090 h1         1 664       0.059033
     56 H362         4.4580    -2.2320     1.6930 h1         1 664       0.059033
     57 H363         3.0740    -1.1100     1.7130 h1         1 664       0.059033
     58 H311         7.2140    -1.4420     1.8570 hc         1 664       0.063200
     59 H312         6.6050    -2.6410     0.7210 hc         1 664       0.063200
     60 H321         9.1570    -1.9760     0.5930 h1         1 664       0.043700
     61 H322         8.2420    -2.1300    -0.9180 h1         1 664       0.043700
     62 H33          9.6870     0.0300    -0.5970 hn         1 664       0.313500
@<TRIPOS>BOND
     1     1     2 ar  
     2     1     3 ar  
     3     2     4 ar  
     4     2     5 1   
     5     3     7 ar  
     6     3    37 1   
     7     4     6 ar  
     8     5     9 1   
     9     5    38 1   
    10     6     7 ar  
    11     6     8 1   
    12     7    39 1   
    13     8    27 1   
    14     8    28 2   
    15     9    11 ar  
    16     9    13 ar  
    17    10    11 ar  
    18    10    12 ar  
    19    10    41 1   
    20    11    15 1   
    21    12    14 ar  
    22    12    42 1   
    23    13    14 ar  
    24    13    40 1   
    25    14    16 1   
    26    15    23 1   
    27    16    17 1   
    28    16    21 1   
    29    17    18 1   
    30    17    43 1   
    31    17    44 1   
    32    18    19 1   
    33    18    47 1   
    34    18    48 1   
    35    19    20 1   
    36    19    22 1   
    37    20    21 1   
    38    20    49 1   
    39    20    50 1   
    40    21    45 1   
    41    21    46 1   
    42    22    51 1   
    43    22    52 1   
    44    22    53 1   
    45    23    24 1   
    46    23    25 1   
    47    23    26 1   
    48    27    30 1   
    49    27    36 1   
    50    28    29 1   
    51    28    54 1   
    52    29    30 2   
    53    29    34 1   
    54    30    31 1   
    55    31    32 1   
    56    31    58 1   
    57    31    59 1   
    58    32    33 1   
    59    32    60 1   
    60    32    61 1   
    61    33    34 1   
    62    33    62 1   
    63    34    35 2   
    64    36    55 1   
    65    36    56 1   
    66    36    57 1   
@<TRIPOS>SUBSTRUCTURE
     1 664         1 TEMP              0 ****  ****    0 ROOT
