@<TRIPOS>MOLECULE
664
   62    66     1     0     0
SMALL
abcg2


@<TRIPOS>ATOM
      1 N1           0.0110     1.6280    -0.7530 nb         1 664      -0.232000
      2 C2           0.4530     0.4470    -0.3450 ca         1 664       0.393900
      3 C6           0.9500     2.5300    -1.0220 ca         1 664       0.146900
      4 N3           1.7290     0.0920    -0.1930 nb         1 664      -0.269000
      5 N7          -0.4370    -0.5470    -0.0520 nu         1 664      -0.935900
      6 C4           2.6580     0.9990    -0.4670 ca         1 664       0.261500
      7 C5           2.2980     2.2840    -0.8940 ca         1 664      -0.258000
      8 C26          4.0560     0.6280    -0.3480 cc         1 664      -0.273500
      9 C8          -1.8190    -0.5480    -0.2040 ca         1 664       0.362000
     10 C10         -3.8280    -1.8050    -0.6590 ca         1 664      -0.044000
     11 C9          -2.4550    -1.7390    -0.5710 ca         1 664      -0.008900
     12 C11         -4.6040    -0.6790    -0.4330 ca         1 664      -0.195000
     13 C13         -2.6060     0.5650     0.0590 ca         1 664      -0.172000
     14 C12         -4.0020     0.5340    -0.0740 ca         1 664       0.340000
     15 O14         -1.6790    -2.8780    -0.7840 os         1 664      -0.402100
     16 N15         -4.7410     1.6770     0.2000 nh         1 664      -0.787400
     17 C16         -6.1870     1.5880     0.1480 c6         1 664       0.197300
     18 C17         -6.8240     2.7870     0.8260 c6         1 664       0.156800
     19 N18         -6.3590     4.0290     0.2490 n3         1 664      -0.713600
     20 C19         -4.9200     4.1130     0.3690 c6         1 664       0.156800
     21 C20         -4.2560     2.9450    -0.3310 c6         1 664       0.197300
     22 C21         -7.0170     5.1720     0.8390 c3         1 664       0.152100
     23 C22         -1.3560    -3.1750    -2.0500 c3         1 664       0.508000
     24 F23         -0.7510    -2.1670    -2.6810 f          1 664      -0.110000
     25 F24         -0.5290    -4.2080    -2.0220 f          1 664      -0.110000
     26 F25         -2.4160    -3.5090    -2.7880 f          1 664      -0.110000
     27 N27          4.5320    -0.4670     0.3590 na         1 664       0.077000
     28 C28          5.1290     1.2400    -0.9610 cd         1 664      -0.061000
     29 C29          6.2710     0.4910    -0.6320 cd         1 664      -0.240600
     30 C30          5.8640    -0.5480     0.1830 cc         1 664      -0.115300
     31 C31          6.8190    -1.5190     0.7770 c6         1 664      -0.026100
     32 C32          8.0280    -1.5910    -0.1510 c6         1 664       0.114000
     33 N33          8.5020    -0.2690    -0.5290 ns         1 664      -0.509900
     34 C34          7.6780     0.7190    -0.9560 c          1 664       0.606600
     35 O35          8.0830     1.7280    -1.5200 o          1 664      -0.561000
     36 C36          3.7770    -1.3510     1.2280 c3         1 664       0.060900
     37 H6           0.6000     3.5020    -1.3520 h4         1 664       0.024100
     38 H7           0.0020    -1.4300     0.1600 hn         1 664       0.520000
     39 H5           3.0280     3.0520    -1.1010 ha         1 664       0.144000
     40 H13         -2.1160     1.4650     0.3900 ha         1 664       0.146000
     41 H10         -4.3090    -2.7380    -0.9230 ha         1 664       0.131000
     42 HA          -5.6730    -0.7660    -0.5540 ha         1 664       0.123000
     43 H161        -6.5490     1.5110    -0.8880 h1         1 664       0.049450
     44 H162        -6.5190     0.6940     0.6770 h1         1 664       0.049450
     45 H201        -3.1810     3.0310    -0.1930 h1         1 664       0.049450
     46 H202        -4.4500     3.0070    -1.4120 h1         1 664       0.049450
     47 H171        -7.9070     2.7160     0.7060 h1         1 664       0.040950
     48 H172        -6.6160     2.7370     1.9100 h1         1 664       0.040950
     49 H191        -4.5720     5.0390    -0.0940 h1         1 664       0.040950
     50 H192        -4.5970     4.1350     1.4240 h1         1 664       0.040950
     51 H211        -6.8390     5.2660     1.9220 h1         1 664       0.032700
     52 H212        -6.6680     6.0900     0.3630 h1         1 664       0.032700
     53 H213        -8.0950     5.1030     0.6850 h1         1 664       0.032700
     54 H28          5.0830     2.1050    -1.6020 ha         1 664       0.150000
     55 H361         3.1530    -2.0310     0.6560 h1         1 664       0.059033
     56 H362         4.4760    -1.9270     1.8270 h1         1 664       0.059033
     57 H363         3.1450    -0.7780     1.8990 h1         1 664       0.059033
     58 H311         7.1170    -1.1920     1.7780 hc         1 664       0.063200
     59 H312         6.3960    -2.5190     0.8760 hc         1 664       0.063200
     60 H321         8.8450    -2.1130     0.3430 h1         1 664       0.043700
     61 H322         7.7580    -2.1700    -1.0400 h1         1 664       0.043700
     62 H33          9.4700    -0.1920    -0.7980 hn         1 664       0.313500
@<TRIPOS>BOND
     1     1     2 ar  
     2     1     3 ar  
     3     2     4 ar  
     4     2     5 1   
     5     3     7 ar  
     6     3    37 1   
     7     4     6 ar  
     8     5     9 1   
     9     5    38 1   
    10     6     7 ar  
    11     6     8 1   
    12     7    39 1   
    13     8    27 1   
    14     8    28 2   
    15     9    11 ar  
    16     9    13 ar  
    17    10    11 ar  
    18    10    12 ar  
    19    10    41 1   
    20    11    15 1   
    21    12    14 ar  
    22    12    42 1   
    23    13    14 ar  
    24    13    40 1   
    25    14    16 1   
    26    15    23 1   
    27    16    17 1   
    28    16    21 1   
    29    17    18 1   
    30    17    43 1   
    31    17    44 1   
    32    18    19 1   
    33    18    47 1   
    34    18    48 1   
    35    19    20 1   
    36    19    22 1   
    37    20    21 1   
    38    20    49 1   
    39    20    50 1   
    40    21    45 1   
    41    21    46 1   
    42    22    51 1   
    43    22    52 1   
    44    22    53 1   
    45    23    24 1   
    46    23    25 1   
    47    23    26 1   
    48    27    30 1   
    49    27    36 1   
    50    28    29 1   
    51    28    54 1   
    52    29    30 2   
    53    29    34 1   
    54    30    31 1   
    55    31    32 1   
    56    31    58 1   
    57    31    59 1   
    58    32    33 1   
    59    32    60 1   
    60    32    61 1   
    61    33    34 1   
    62    33    62 1   
    63    34    35 2   
    64    36    55 1   
    65    36    56 1   
    66    36    57 1   
@<TRIPOS>SUBSTRUCTURE
     1 664         1 TEMP              0 ****  ****    0 ROOT
