@<TRIPOS>MOLECULE
665
   43    45     1     0     0
SMALL
abcg2


@<TRIPOS>ATOM
      1 C1          -7.2420    -0.1870     0.2230 c6         1 665      -0.071400
      2 C2          -6.0200     0.6230    -0.2020 c6         1 665      -0.092400
      3 C3          -4.7550     0.0210     0.4090 c6         1 665       0.133700
      4 C4          -4.5880    -1.4480     0.0210 c6         1 665      -0.092400
      5 C5          -5.8190    -2.2540     0.4240 c6         1 665      -0.071400
      6 C6          -7.0950    -1.6570    -0.1600 c6         1 665      -0.077400
      7 C7          -3.0850     1.1440    -1.0670 c          1 665       0.571000
      8 C8          -1.8180     1.9500    -0.8610 c5         1 665      -0.171400
      9 C9          -1.3710     1.5740     0.5580 c5         1 665      -0.167700
     10 C10         -2.6870     1.1960     1.2360 c5         1 665       0.116000
     11 N11         -3.5490     0.7900     0.1430 n          1 665      -0.408800
     12 C12         -0.4170     0.3940     0.4800 c          1 665       0.610100
     13 N13          0.8810     0.7690     0.3260 ns         1 665      -0.148000
     14 O14         -0.7950    -0.7600     0.5070 o          1 665      -0.561100
     15 O15         -3.5960     0.8970    -2.1480 o          1 665      -0.546000
     16 C17          3.2400     0.6510     0.1020 ca         1 665      -0.147000
     17 C18          4.4090    -0.0620    -0.0880 ca         1 665       0.011100
     18 C19          4.4070    -1.4400    -0.2450 ca         1 665      -0.111000
     19 C20          3.1850    -2.0920    -0.2070 ca         1 665      -0.083000
     20 C21          1.9920    -1.4090    -0.0190 ca         1 665      -0.121000
     21 C22          2.0140    -0.0220     0.1380 ca         1 665      -0.017000
     22 H8          -8.1400     0.2360    -0.2330 hc         1 665       0.038200
     23 H1          -7.3770    -0.1060     1.3070 hc         1 665       0.038200
     24 H2          -5.9470     0.6220    -1.2900 hc         1 665       0.058200
     25 H10         -6.1230     1.6640     0.1150 hc         1 665       0.058200
     26 H3          -4.8820     0.0630     1.4960 h1         1 665       0.041700
     27 H41         -4.4320    -1.5210    -1.0590 hc         1 665       0.058200
     28 H42         -3.6900    -1.8480     0.5000 hc         1 665       0.058200
     29 H4          -5.8960    -2.2700     1.5170 hc         1 665       0.038200
     30 H5          -5.7030    -3.2930     0.1080 hc         1 665       0.038200
     31 H7          -7.0720    -1.7460    -1.2510 hc         1 665       0.041700
     32 H6          -7.9660    -2.2240     0.1800 hc         1 665       0.041700
     33 H81         -2.0660     3.0130    -0.9210 hc         1 665       0.082200
     34 H82         -1.0810     1.7470    -1.6380 hc         1 665       0.082200
     35 H9          -0.8930     2.4120     1.0670 hc         1 665       0.072700
     36 H101        -2.5700     0.3850     1.9560 h1         1 665       0.056700
     37 H102        -3.1090     2.0540     1.7680 h1         1 665       0.056700
     38 HN13         1.0570     1.7630     0.3530 hn         1 665       0.151000
     39 H19          5.3230    -1.9950    -0.3950 ha         1 665       0.133000
     40 H20          3.1570    -3.1670    -0.3290 ha         1 665       0.121000
     41 H21          1.0670    -1.9590     0.0000 ha         1 665       0.152000
     42 H17          3.2640     1.7270     0.2210 ha         1 665       0.123000
     43 BR1          6.0500     0.8730    -0.1330 br         1 665      -0.098100
@<TRIPOS>BOND
     1     1     2 1   
     2     1     6 1   
     3     1    22 1   
     4     1    23 1   
     5     2     3 1   
     6     2    24 1   
     7     2    25 1   
     8     3     4 1   
     9     3    11 1   
    10     3    26 1   
    11     4     5 1   
    12     4    27 1   
    13     4    28 1   
    14     5     6 1   
    15     5    29 1   
    16     5    30 1   
    17     6    31 1   
    18     6    32 1   
    19     7     8 1   
    20     7    11 1   
    21     7    15 2   
    22     8     9 1   
    23     8    33 1   
    24     8    34 1   
    25     9    10 1   
    26     9    12 1   
    27     9    35 1   
    28    10    11 1   
    29    10    36 1   
    30    10    37 1   
    31    12    13 1   
    32    12    14 2   
    33    13    21 1   
    34    13    38 1   
    35    16    17 ar  
    36    16    21 ar  
    37    16    42 1   
    38    17    18 ar  
    39    17    43 1   
    40    18    19 ar  
    41    18    39 1   
    42    19    20 ar  
    43    19    40 1   
    44    20    21 ar  
    45    20    41 1   
@<TRIPOS>SUBSTRUCTURE
     1 665         1 TEMP              0 ****  ****    0 ROOT
