@<TRIPOS>MOLECULE
665
   43    45     1     0     0
SMALL
No Charge or Current Charge


@<TRIPOS>ATOM
      1 C1          -7.2460    -0.2830     0.5090 c6         1 665      -0.071400
      2 C2          -6.1110     0.6250    -0.0260 c6         1 665      -0.092400
      3 C3          -4.7220     0.1040     0.4290 c6         1 665       0.133700
      4 C4          -4.4920    -1.3820     0.0480 c6         1 665      -0.092400
      5 C5          -5.6410    -2.2760     0.5790 c6         1 665      -0.071400
      6 C6          -7.0220    -1.7610     0.1010 c6         1 665      -0.077400
      7 C7          -3.3110     1.3140    -1.3090 c          1 665       0.571000
      8 C8          -2.0750     2.2050    -1.2180 c5         1 665      -0.171400
      9 C9          -1.3430     1.7080     0.0690 c5         1 665      -0.167700
     10 C10         -2.5440     1.3270     0.9930 c5         1 665       0.116000
     11 N11         -3.6010     0.9800     0.0190 n          1 665      -0.408800
     12 C12         -0.4840     0.4460    -0.2360 c          1 665       0.610100
     13 N13          0.8260     0.6920     0.1570 ns         1 665      -0.148000
     14 O14         -0.8840    -0.5950    -0.7440 o          1 665      -0.561100
     15 O15         -3.8230     0.8150    -2.3000 o          1 665      -0.546000
     16 C17          3.1990     0.4750     0.5780 ca         1 665      -0.147000
     17 C18          4.4000    -0.2540     0.5640 ca         1 665       0.011100
     18 C19          4.4200    -1.5730     0.0860 ca         1 665      -0.111000
     19 C20          3.2340    -2.1620    -0.3790 ca         1 665      -0.083000
     20 C21          2.0300    -1.4350    -0.3670 ca         1 665      -0.121000
     21 C22          2.0030    -0.1050     0.1120 ca         1 665      -0.017000
     22 H8          -8.2150     0.0670     0.1270 hc         1 665       0.038200
     23 H1          -7.2970    -0.2060     1.6040 hc         1 665       0.038200
     24 H2          -6.1660     0.6620    -1.1220 hc         1 665       0.058200
     25 H10         -6.2580     1.6540     0.3300 hc         1 665       0.058200
     26 H3          -4.7430     0.1320     1.5290 h1         1 665       0.041700
     27 H41         -4.4230    -1.4860    -1.0420 hc         1 665       0.058200
     28 H42         -3.5330    -1.7280     0.4570 hc         1 665       0.058200
     29 H4          -5.6150    -2.2980     1.6770 hc         1 665       0.038200
     30 H5          -5.4920    -3.3120     0.2440 hc         1 665       0.038200
     31 H7          -7.0960    -1.8580    -0.9920 hc         1 665       0.041700
     32 H6          -7.8190    -2.3880     0.5230 hc         1 665       0.041700
     33 H81         -2.4270     3.2260    -1.0330 hc         1 665       0.082200
     34 H82         -1.4900     2.1890    -2.1450 hc         1 665       0.082200
     35 H9          -0.7240     2.4940     0.5190 hc         1 665       0.072700
     36 H101        -2.3060     0.4930     1.6690 h1         1 665       0.056700
     37 H102        -2.8620     2.1820     1.6050 h1         1 665       0.056700
     38 HN13         0.9730     1.6120     0.5500 hn         1 665       0.151000
     39 H19          5.3500    -2.1360     0.0770 ha         1 665       0.133000
     40 H20          3.2460    -3.1850    -0.7500 ha         1 665       0.121000
     41 H21          1.1330    -1.9240    -0.7330 ha         1 665       0.152000
     42 H17          3.2000     1.4960     0.9510 ha         1 665       0.123000
     43 Br1          6.0120     0.5550     1.2010 br         1 665      -0.098100
@<TRIPOS>BOND
     1     1     2 1   
     2     1     6 1   
     3     1    22 1   
     4     1    23 1   
     5     2     3 1   
     6     2    24 1   
     7     2    25 1   
     8     3     4 1   
     9     3    11 1   
    10     3    26 1   
    11     4     5 1   
    12     4    27 1   
    13     4    28 1   
    14     5     6 1   
    15     5    29 1   
    16     5    30 1   
    17     6    31 1   
    18     6    32 1   
    19     7     8 1   
    20     7    11 1   
    21     7    15 2   
    22     8     9 1   
    23     8    33 1   
    24     8    34 1   
    25     9    10 1   
    26     9    12 1   
    27     9    35 1   
    28    10    11 1   
    29    10    36 1   
    30    10    37 1   
    31    12    13 1   
    32    12    14 2   
    33    13    21 1   
    34    13    38 1   
    35    16    17 ar  
    36    16    21 ar  
    37    16    42 1   
    38    17    18 ar  
    39    17    43 1   
    40    18    19 ar  
    41    18    39 1   
    42    19    20 ar  
    43    19    40 1   
    44    20    21 ar  
    45    20    41 1   
@<TRIPOS>SUBSTRUCTURE
     1 665         1 TEMP              0 ****  ****    0 ROOT
