@<TRIPOS>MOLECULE
666
   54    57     1     0     0
SMALL
abcg2


@<TRIPOS>ATOM
      1 C1          -4.5900    -2.6980     1.2140 ca         1 666      -0.112000
      2 C2          -4.7820    -1.4780     0.5870 ca         1 666      -0.081000
      3 C3          -4.1320    -1.1850    -0.6100 ca         1 666      -0.075300
      4 C4          -3.2880    -2.1420    -1.1660 ca         1 666      -0.096000
      5 C5          -3.1010    -3.3600    -0.5250 ca         1 666       0.201000
      6 C6          -3.7420    -3.6550     0.6660 ca         1 666      -0.085000
      7 C11         -4.3370     0.1470    -1.2950 c3         1 666       0.026100
      8 C12         -4.0280     1.3290    -0.4110 ce         1 666      -0.342400
      9 C15         -2.7350     1.6790    -0.1120 c2         1 666       0.224800
     10 C16         -2.4150     2.8600     0.7580 c6         1 666      -0.061200
     11 C17         -3.5310     3.8880     0.7240 c6         1 666      -0.065400
     12 C18         -4.8530     3.2290     1.0620 c6         1 666      -0.180400
     13 C19         -5.1450     2.0420     0.1750 c          1 666       0.595300
     14 N26         -1.7050     0.9650    -0.6330 nu         1 666      -0.837000
     15 C27         -0.3290     1.1320    -0.4430 ca         1 666       0.300000
     16 C28          0.5130     1.0290    -1.5540 ca         1 666      -0.149000
     17 C29          1.8770     1.1660    -1.4150 ca         1 666      -0.060500
     18 C30          2.4580     1.4200    -0.1670 ca         1 666      -0.135900
     19 C31          1.6100     1.4920     0.9370 ca         1 666      -0.060500
     20 C32          0.2390     1.3370     0.8090 ca         1 666      -0.149000
     21 C37          3.9130     1.6210    -0.0400 ce         1 666       0.397900
     22 N38          4.6020     1.5740    -1.1140 n2         1 666      -0.440300
     23 N39          5.9380     1.8050    -1.0470 ns         1 666      -0.272900
     24 C40          6.7210     1.7410     0.0620 c          1 666       0.552000
     25 C41          5.9650     1.4150     1.3150 c6         1 666      -0.168400
     26 C42          4.5420     1.9590     1.2850 c6         1 666      -0.126000
     27 O45         -6.3070     1.6870    -0.0040 o          1 666      -0.558100
     28 O46          7.9280     1.8950    -0.0010 o          1 666      -0.531000
     29 C47          4.4950     3.4750     1.5000 c3         1 666      -0.089100
     30 I54         -1.8070    -4.7840    -1.3830 i          1 666      -0.323000
     31 H1          -5.1010    -2.9160     2.1420 ha         1 666       0.117000
     32 H2          -5.4500    -0.7520     1.0330 ha         1 666       0.129000
     33 H4          -2.7890    -1.9310    -2.1040 ha         1 666       0.116000
     34 H6          -3.5980    -4.6030     1.1670 ha         1 666       0.126000
     35 H111        -5.3750     0.2200    -1.6200 hc         1 666       0.058700
     36 H112        -3.7480     0.1730    -2.2180 hc         1 666       0.058700
     37 H161        -2.2620     2.5220     1.7880 hc         1 666       0.063700
     38 H162        -1.4750     3.3130     0.4400 hc         1 666       0.063700
     39 H171        -3.5820     4.3410    -0.2690 hc         1 666       0.052700
     40 H172        -3.3100     4.6880     1.4310 hc         1 666       0.052700
     41 H181        -5.6850     3.9310     0.9950 hc         1 666       0.069700
     42 H182        -4.8320     2.8670     2.0980 hc         1 666       0.069700
     43 H26         -1.9420     0.3110    -1.3630 hn         1 666       0.503000
     44 H28          0.0890     0.8510    -2.5350 ha         1 666       0.123000
     45 H29          2.5050     1.0910    -2.2920 ha         1 666       0.126500
     46 H31          2.0020     1.6570     1.9320 ha         1 666       0.126500
     47 H32         -0.3780     1.3570     1.6970 ha         1 666       0.123000
     48 H39          6.3850     1.8800    -1.9480 hn         1 666       0.349500
     49 H411         6.5120     1.7930     2.1790 hc         1 666       0.082700
     50 H412         5.9470     0.3230     1.4040 hc         1 666       0.082700
     51 H42          3.9940     1.4810     2.0970 hc         1 666       0.069700
     52 H471         5.0450     4.0130     0.7250 hc         1 666       0.045033
     53 H472         3.4690     3.8430     1.4950 hc         1 666       0.045033
     54 H473         4.9380     3.7300     2.4630 hc         1 666       0.045033
@<TRIPOS>BOND
     1     1     2 ar  
     2     1     6 ar  
     3     1    31 1   
     4     2     3 ar  
     5     2    32 1   
     6     3     4 ar  
     7     3     7 1   
     8     4     5 ar  
     9     4    33 1   
    10     5     6 ar  
    11     5    30 1   
    12     6    34 1   
    13     7     8 1   
    14     7    35 1   
    15     7    36 1   
    16     8     9 2   
    17     8    13 1   
    18     9    10 1   
    19     9    14 1   
    20    10    11 1   
    21    10    37 1   
    22    10    38 1   
    23    11    12 1   
    24    11    39 1   
    25    11    40 1   
    26    12    13 1   
    27    12    41 1   
    28    12    42 1   
    29    13    27 2   
    30    14    15 1   
    31    14    43 1   
    32    15    16 ar  
    33    15    20 ar  
    34    16    17 ar  
    35    16    44 1   
    36    17    18 ar  
    37    17    45 1   
    38    18    19 ar  
    39    18    21 1   
    40    19    20 ar  
    41    19    46 1   
    42    20    47 1   
    43    21    22 2   
    44    21    26 1   
    45    22    23 1   
    46    23    24 1   
    47    23    48 1   
    48    24    25 1   
    49    24    28 2   
    50    25    26 1   
    51    25    49 1   
    52    25    50 1   
    53    26    29 1   
    54    26    51 1   
    55    29    52 1   
    56    29    53 1   
    57    29    54 1   
@<TRIPOS>SUBSTRUCTURE
     1 666         1 TEMP              0 ****  ****    0 ROOT
