@<TRIPOS>MOLECULE
666
   54    57     1     0     0
SMALL
No Charge or Current Charge


@<TRIPOS>ATOM
      1 C1          -4.5940    -2.5850     0.9690 ca         1 666      -0.112000
      2 C2          -4.7230    -1.3420     0.3250 ca         1 666      -0.081000
      3 C3          -3.9670    -1.0550    -0.8290 ca         1 666      -0.075300
      4 C4          -3.0810    -2.0290    -1.3350 ca         1 666      -0.096000
      5 C5          -2.9520    -3.2690    -0.6890 ca         1 666       0.201000
      6 C6          -3.7060    -3.5500     0.4620 ca         1 666      -0.085000
      7 C11         -4.1000     0.3020    -1.5140 c3         1 666       0.026100
      8 C12         -3.8840     1.5070    -0.5840 ce         1 666      -0.342400
      9 C15         -2.7930     1.7080     0.1950 c2         1 666       0.224800
     10 C16         -2.6770     2.8540     1.2090 c6         1 666      -0.061200
     11 C17         -3.8970     3.8170     1.2710 c6         1 666      -0.065400
     12 C18         -5.2060     3.1110     0.8550 c6         1 666      -0.180400
     13 C19         -4.9830     2.5140    -0.5270 c          1 666       0.595300
     14 N26         -1.7810     0.7610     0.1400 nu         1 666      -0.837000
     15 C27         -0.3980     0.9280     0.1290 ca         1 666       0.300000
     16 C28          0.3280     0.5410    -1.0030 ca         1 666      -0.149000
     17 C29          1.7260     0.6850    -1.0380 ca         1 666      -0.060500
     18 C30          2.4330     1.2180     0.0680 ca         1 666      -0.135900
     19 C31          1.6840     1.5880     1.2130 ca         1 666      -0.060500
     20 C32          0.2860     1.4410     1.2390 ca         1 666      -0.149000
     21 C37          3.9390     1.3610     0.0110 ce         1 666       0.397900
     22 N38          4.5820     0.9410    -1.0450 n2         1 666      -0.440300
     23 N39          5.8920     1.3460    -1.2920 ns         1 666      -0.272900
     24 C40          6.7880     1.6940    -0.2930 c          1 666       0.552000
     25 C41          6.2250     1.6790     1.1340 c6         1 666      -0.168400
     26 C42          4.7100     2.0420     1.1730 c6         1 666      -0.126000
     27 O45         -5.7320     2.7560    -1.4640 o          1 666      -0.558100
     28 O46          7.9270     2.0590    -0.5440 o          1 666      -0.531000
     29 C47          4.5080     3.5840     1.1220 c3         1 666      -0.089100
     30 I54         -1.5800    -4.7510    -1.4690 i          1 666      -0.323000
     31 H1          -5.1790    -2.7990     1.8610 ha         1 666       0.117000
     32 H2          -5.4100    -0.5980     0.7250 ha         1 666       0.129000
     33 H4          -2.4920    -1.8310    -2.2270 ha         1 666       0.116000
     34 H6          -3.6010    -4.5110     0.9580 ha         1 666       0.126000
     35 H111        -5.0920     0.3410    -1.9810 hc         1 666       0.058700
     36 H112        -3.3970     0.3710    -2.3540 hc         1 666       0.058700
     37 H161        -2.5450     2.4080     2.2040 hc         1 666       0.063700
     38 H162        -1.7670     3.4360     1.0120 hc         1 666       0.063700
     39 H171        -3.7210     4.6640     0.5920 hc         1 666       0.052700
     40 H172        -3.9920     4.2450     2.2780 hc         1 666       0.052700
     41 H181        -6.0800     3.7760     0.8660 hc         1 666       0.069700
     42 H182        -5.3460     2.2820     1.5620 hc         1 666       0.069700
     43 H26         -2.0690    -0.0570    -0.3920 hn         1 666       0.503000
     44 H28         -0.1890     0.1330    -1.8670 ha         1 666       0.123000
     45 H29          2.2530     0.3790    -1.9400 ha         1 666       0.126500
     46 H31          2.1650     1.9920     2.0990 ha         1 666       0.126500
     47 H32         -0.2610     1.7150     2.1350 ha         1 666       0.123000
     48 H39          6.2530     1.4150    -2.2400 hn         1 666       0.349500
     49 H411         6.8510     2.2760     1.8100 hc         1 666       0.082700
     50 H412         6.2920     0.6320     1.4560 hc         1 666       0.082700
     51 H42          4.3140     1.6970     2.1370 hc         1 666       0.069700
     52 H471         4.9050     4.0080     0.1910 hc         1 666       0.045033
     53 H472         3.4480     3.8580     1.1810 hc         1 666       0.045033
     54 H473         5.0200     4.0780     1.9570 hc         1 666       0.045033
@<TRIPOS>BOND
     1     1     2 ar  
     2     1     6 ar  
     3     1    31 1   
     4     2     3 ar  
     5     2    32 1   
     6     3     4 ar  
     7     3     7 1   
     8     4     5 ar  
     9     4    33 1   
    10     5     6 ar  
    11     5    30 1   
    12     6    34 1   
    13     7     8 1   
    14     7    35 1   
    15     7    36 1   
    16     8     9 2   
    17     8    13 1   
    18     9    10 1   
    19     9    14 1   
    20    10    11 1   
    21    10    37 1   
    22    10    38 1   
    23    11    12 1   
    24    11    39 1   
    25    11    40 1   
    26    12    13 1   
    27    12    41 1   
    28    12    42 1   
    29    13    27 2   
    30    14    15 1   
    31    14    43 1   
    32    15    16 ar  
    33    15    20 ar  
    34    16    17 ar  
    35    16    44 1   
    36    17    18 ar  
    37    17    45 1   
    38    18    19 ar  
    39    18    21 1   
    40    19    20 ar  
    41    19    46 1   
    42    20    47 1   
    43    21    22 2   
    44    21    26 1   
    45    22    23 1   
    46    23    24 1   
    47    23    48 1   
    48    24    25 1   
    49    24    28 2   
    50    25    26 1   
    51    25    49 1   
    52    25    50 1   
    53    26    29 1   
    54    26    51 1   
    55    29    52 1   
    56    29    53 1   
    57    29    54 1   
@<TRIPOS>SUBSTRUCTURE
     1 666         1 TEMP              0 ****  ****    0 ROOT
