@<TRIPOS>MOLECULE
667
   36    38     1     0     0
SMALL
No Charge or Current Charge


@<TRIPOS>ATOM
      1 S1          20.2640    26.6580    19.2740 s6         1 667       1.451800
      2 O1          20.2030    27.1290    20.6560 o          1 667      -0.566500
      3 O2          19.1670    25.9180    18.6580 o          1 667      -0.566500
      4 O3          20.8200    27.8230    18.2660 os         1 667      -0.467800
      5 N1          21.5220    25.6480    19.2180 n8         1 667      -1.086100
      6 C1          21.4260    28.9250    18.8100 ca         1 667       0.162100
      7 C2          22.7630    28.8690    19.2270 ca         1 667      -0.130000
      8 C3          23.3850    30.0100    19.7640 ca         1 667      -0.044000
      9 C4          22.6800    31.2350    19.8780 ca         1 667      -0.136800
     10 C5          21.3360    31.2620    19.4560 ca         1 667       0.178100
     11 C6          20.7160    30.1250    18.9180 ca         1 667      -0.143000
     12 C7          23.3130    32.4490    20.4290 cc         1 667       0.034600
     13 C8          22.4750    33.5460    20.6020 cd         1 667      -0.210400
     14 C9          21.0440    33.5390    20.1660 c          1 667       0.673300
     15 C10         24.7660    32.5350    20.8660 c3         1 667      -0.046200
     16 C11         22.9810    34.8270    21.2640 c3         1 667      -0.024200
     17 O5          20.2940    34.4970    20.2990 o          1 667      -0.482000
     18 O4          20.5910    32.3960    19.5820 os         1 667      -0.333200
     19 C12         23.3970    34.6490    22.7520 c3         1 667      -0.068400
     20 C13         23.7890    33.2130    23.1960 c3         1 667      -0.076400
     21 C14         24.9420    32.5410    22.4040 c3         1 667      -0.065400
     22 HN11        21.5330    25.3870    20.2000 hn         1 667       0.512000
     23 HN12        21.0320    24.8610    18.8020 hn         1 667       0.512000
     24 H2          23.3220    27.9410    19.1340 ha         1 667       0.140000
     25 H3          24.4150    29.9120    20.0910 ha         1 667       0.126000
     26 H6          19.6810    30.1760    18.5930 ha         1 667       0.166000
     27 H101        25.2100    33.4520    20.4630 hc         1 667       0.054700
     28 H102        25.3860    31.7450    20.4330 hc         1 667       0.054700
     29 H111        22.2540    35.6460    21.2110 hc         1 667       0.059200
     30 H112        23.8430    35.2080    20.7040 hc         1 667       0.059200
     31 H121        22.5580    34.9710    23.3810 hc         1 667       0.044700
     32 H122        24.2230    35.3360    22.9750 hc         1 667       0.044700
     33 H131        22.9000    32.5700    23.1500 hc         1 667       0.044700
     34 H132        24.0720    33.2430    24.2560 hc         1 667       0.044700
     35 H141        25.8920    33.0310    22.6520 hc         1 667       0.043200
     36 H142        25.0300    31.5030    22.7490 hc         1 667       0.043200
@<TRIPOS>BOND
     1     1     2 2   
     2     1     3 2   
     3     1     4 1   
     4     1     5 1   
     5     4     6 1   
     6     5    22 1   
     7     5    23 1   
     8     6     7 ar  
     9     6    11 ar  
    10     7     8 ar  
    11     7    24 1   
    12     8     9 ar  
    13     8    25 1   
    14     9    10 ar  
    15     9    12 1   
    16    10    11 ar  
    17    10    18 1   
    18    11    26 1   
    19    12    13 2   
    20    12    15 1   
    21    13    14 1   
    22    13    16 1   
    23    14    17 2   
    24    14    18 1   
    25    15    21 1   
    26    15    27 1   
    27    15    28 1   
    28    16    19 1   
    29    16    29 1   
    30    16    30 1   
    31    19    20 1   
    32    19    31 1   
    33    19    32 1   
    34    20    21 1   
    35    20    33 1   
    36    20    34 1   
    37    21    35 1   
    38    21    36 1   
@<TRIPOS>SUBSTRUCTURE
     1 667         1 TEMP              0 ****  ****    0 ROOT
