@<TRIPOS>MOLECULE
667
   36    38     1     0     0
SMALL
abcg2


@<TRIPOS>ATOM
      1 S1          20.4510    26.6230    19.5380 s6         1 667       1.451800
      2 O1          21.2640    26.3480    20.6880 o          1 667      -0.566500
      3 O2          19.1620    27.2320    19.7030 o          1 667      -0.566500
      4 O3          21.3240    27.5730    18.5520 os         1 667      -0.467800
      5 N1          20.3180    25.3380    18.5930 n8         1 667      -1.086100
      6 C1          21.8180    28.7760    19.0710 ca         1 667       0.162100
      7 C2          23.1610    28.8370    19.4260 ca         1 667      -0.130000
      8 C3          23.6790    30.0350    19.8780 ca         1 667      -0.044000
      9 C4          22.8740    31.1820    19.9910 ca         1 667      -0.136800
     10 C5          21.5240    31.0620    19.6310 ca         1 667       0.178100
     11 C6          20.9830    29.8720    19.1630 ca         1 667      -0.143000
     12 C7          23.3390    32.4670    20.4610 cc         1 667       0.034600
     13 C8          22.4630    33.5070    20.5720 cd         1 667      -0.210400
     14 C9          21.0700    33.3490    20.2100 c          1 667       0.673300
     15 C10         24.7610    32.6860    20.8910 c3         1 667      -0.046200
     16 C11         22.9090    34.8340    21.1220 c3         1 667      -0.024200
     17 O5          20.2040    34.1990    20.2840 o          1 667      -0.482000
     18 O4          20.6740    32.1200    19.7270 os         1 667      -0.333200
     19 C12         23.2720    34.7860    22.6320 c3         1 667      -0.068400
     20 C13         23.7170    33.4170    23.1560 c3         1 667      -0.076400
     21 C14         24.9040    32.7730    22.4320 c3         1 667      -0.065400
     22 HN11        20.9520    24.5720    18.7760 hn         1 667       0.512000
     23 HN12        19.3830    25.1040    18.2900 hn         1 667       0.512000
     24 H2          23.7780    27.9540    19.3430 ha         1 667       0.140000
     25 H3          24.7210    30.0830    20.1550 ha         1 667       0.126000
     26 H6          19.9410    29.8140    18.8820 ha         1 667       0.166000
     27 H101        25.1030    33.6240    20.4500 hc         1 667       0.054700
     28 H102        25.4190    31.9100    20.5100 hc         1 667       0.054700
     29 H111        22.1290    35.5740    20.9590 hc         1 667       0.059200
     30 H112        23.7810    35.1660    20.5540 hc         1 667       0.059200
     31 H121        22.3990    35.0960    23.2120 hc         1 667       0.044700
     32 H122        24.0520    35.5280    22.8200 hc         1 667       0.044700
     33 H131        22.8660    32.7320    23.1130 hc         1 667       0.044700
     34 H132        23.9700    33.5150    24.2150 hc         1 667       0.044700
     35 H141        25.8210    33.3250    22.6510 hc         1 667       0.043200
     36 H142        25.0380    31.7650    22.8290 hc         1 667       0.043200
@<TRIPOS>BOND
     1     1     2 2   
     2     1     3 2   
     3     1     4 1   
     4     1     5 1   
     5     4     6 1   
     6     5    22 1   
     7     5    23 1   
     8     6     7 ar  
     9     6    11 ar  
    10     7     8 ar  
    11     7    24 1   
    12     8     9 ar  
    13     8    25 1   
    14     9    10 ar  
    15     9    12 1   
    16    10    11 ar  
    17    10    18 1   
    18    11    26 1   
    19    12    13 2   
    20    12    15 1   
    21    13    14 1   
    22    13    16 1   
    23    14    17 2   
    24    14    18 1   
    25    15    21 1   
    26    15    27 1   
    27    15    28 1   
    28    16    19 1   
    29    16    29 1   
    30    16    30 1   
    31    19    20 1   
    32    19    31 1   
    33    19    32 1   
    34    20    21 1   
    35    20    33 1   
    36    20    34 1   
    37    21    35 1   
    38    21    36 1   
@<TRIPOS>SUBSTRUCTURE
     1 667         1 TEMP              0 ****  ****    0 ROOT
