@<TRIPOS>MOLECULE
668
   70    72     1     0     0
SMALL
No Charge or Current Charge


@<TRIPOS>ATOM
      1 F2          -7.3330    -1.8180    -0.0300 f          1 668      -0.105667
      2 C24         -6.7350    -0.9320    -0.8600 c3         1 668       0.319000
      3 F           -5.5850    -1.5050    -1.2810 f          1 668      -0.105667
      4 F1          -7.5240    -0.8020    -1.9530 f          1 668      -0.105667
      5 C3          -6.4830     0.4510    -0.1390 c3         1 668       0.055000
      6 O           -6.1700     1.4810    -1.1250 oh         1 668      -0.640000
      7 C1          -7.7670     0.9720     0.6410 c3         1 668      -0.078700
      8 C2          -7.5220     2.3150     1.3890 c3         1 668      -0.095100
      9 C           -9.0520     1.0980    -0.2240 c3         1 668      -0.095100
     10 C4          -5.2950     0.2140     0.8900 c          1 668       0.570100
     11 O1          -5.5400    -0.1930     2.0220 o          1 668      -0.574100
     12 N           -3.9530     0.5810     0.5750 n          1 668      -0.396800
     13 C9          -2.9180     0.6910     1.6340 c6         1 668       0.090000
     14 C8          -1.9430    -0.5080     1.6030 c6         1 668      -0.101900
     15 C7          -1.2510    -0.6540     0.2130 c6         1 668      -0.054700
     16 C6          -2.3560    -0.6900    -0.8880 c6         1 668      -0.101900
     17 C5          -3.3410     0.5010    -0.7810 c6         1 668       0.090000
     18 C10         -0.3100    -1.9210     0.1490 c6         1 668      -0.054700
     19 C14          0.4070    -2.1010    -1.2230 c6         1 668      -0.081900
     20 C13          1.4510    -0.9860    -1.4890 c6         1 668       0.210800
     21 N1           2.4520    -0.9060    -0.3860 nh         1 668      -0.803400
     22 C12          1.8620    -0.8050     0.9810 c6         1 668       0.210800
     23 C11          0.8160    -1.9210     1.2270 c6         1 668      -0.081900
     24 C15          3.7530    -0.4100    -0.6230 ca         1 668       0.342000
     25 C23          4.8300    -0.8960     0.1340 ca         1 668      -0.176000
     26 C22          6.1320    -0.4200    -0.0810 ca         1 668       0.182000
     27 Cl           7.4450    -1.1600     0.8350 cl         1 668      -0.201000
     28 C18          6.3740     0.5680    -1.0590 ca         1 668      -0.183600
     29 C17          5.3000     1.0320    -1.8420 ca         1 668      -0.028000
     30 C16          4.0000     0.5510    -1.6190 ca         1 668      -0.193000
     31 C19          7.7490     1.1120    -1.3200 c          1 668       0.625700
     32 O2           8.2550     1.0070    -2.4310 o          1 668      -0.593100
     33 N2           8.4560     1.7000    -0.2460 n          1 668      -0.400800
     34 C21          9.8610     2.1210    -0.4290 c3         1 668       0.091300
     35 C20          7.7450     2.2380     0.9370 c3         1 668       0.091300
     36 H1          -5.9560     2.3070    -0.6380 ho         1 668       0.470000
     37 H2          -8.0040     0.2330     1.4180 hc         1 668       0.091700
     38 H3          -7.3810     3.1450     0.6860 hc         1 668       0.042533
     39 H4          -8.3840     2.5620     2.0210 hc         1 668       0.042533
     40 H5          -6.6450     2.2670     2.0430 hc         1 668       0.042533
     41 H6          -9.4050     0.1180    -0.5640 hc         1 668       0.042533
     42 H7          -9.8680     1.5420     0.3600 hc         1 668       0.042533
     43 H8          -8.8840     1.7330    -1.1010 hc         1 668       0.042533
     44 H9          -2.3510     1.6210     1.4800 h1         1 668       0.060700
     45 H10         -3.3790     0.7660     2.6290 h1         1 668       0.060700
     46 H11         -1.2000    -0.3530     2.3950 hc         1 668       0.054700
     47 H12         -2.4880    -1.4280     1.8530 hc         1 668       0.054700
     48 H13         -0.6490     0.2500     0.0460 hc         1 668       0.044700
     49 H14         -1.9080    -0.6600    -1.8890 hc         1 668       0.054700
     50 H15         -2.9140    -1.6330    -0.8220 hc         1 668       0.054700
     51 H16         -4.0900     0.3970    -1.5720 h1         1 668       0.060700
     52 H17         -2.7990     1.4370    -0.9790 h1         1 668       0.060700
     53 H18         -0.9350    -2.8090     0.3180 hc         1 668       0.056700
     54 H19          0.9250    -3.0700    -1.2320 hc         1 668       0.053450
     55 H20         -0.3070    -2.1560    -2.0520 hc         1 668       0.053450
     56 H21          1.9560    -1.2090    -2.4400 h1         1 668       0.039450
     57 H22          0.9400    -0.0200    -1.6100 h1         1 668       0.039450
     58 H23          2.6450    -0.8890     1.7480 h1         1 668       0.039450
     59 H24          1.3910     0.1800     1.1140 h1         1 668       0.039450
     60 H25          0.4090    -1.8410     2.2420 hc         1 668       0.053450
     61 H26          1.3320    -2.8910     1.2070 hc         1 668       0.053450
     62 H27          4.6610    -1.6670     0.8770 ha         1 668       0.132000
     63 H28          5.4720     1.7810    -2.6140 ha         1 668       0.125000
     64 H29          3.1830     0.9420    -2.2180 ha         1 668       0.118000
     65 H30          9.9000     3.0110    -1.0710 h1         1 668       0.041200
     66 H31         10.3160     2.3570     0.5410 h1         1 668       0.041200
     67 H32         10.4370     1.3120    -0.8980 h1         1 668       0.041200
     68 H33          6.7020     2.4710     0.6900 h1         1 668       0.041200
     69 H34          7.7700     1.5050     1.7530 h1         1 668       0.041200
     70 H35          8.2300     3.1610     1.2800 h1         1 668       0.041200
@<TRIPOS>BOND
     1     1     2 1   
     2     2     3 1   
     3     2     4 1   
     4     2     5 1   
     5     5     6 1   
     6     5     7 1   
     7     5    10 1   
     8     6    36 1   
     9     7     8 1   
    10     7     9 1   
    11     7    37 1   
    12     8    38 1   
    13     8    39 1   
    14     8    40 1   
    15     9    41 1   
    16     9    42 1   
    17     9    43 1   
    18    10    11 2   
    19    10    12 1   
    20    12    13 1   
    21    12    17 1   
    22    13    14 1   
    23    13    44 1   
    24    13    45 1   
    25    14    15 1   
    26    14    46 1   
    27    14    47 1   
    28    15    16 1   
    29    15    18 1   
    30    15    48 1   
    31    16    17 1   
    32    16    49 1   
    33    16    50 1   
    34    17    51 1   
    35    17    52 1   
    36    18    19 1   
    37    18    23 1   
    38    18    53 1   
    39    19    20 1   
    40    19    54 1   
    41    19    55 1   
    42    20    21 1   
    43    20    56 1   
    44    20    57 1   
    45    21    22 1   
    46    21    24 1   
    47    22    23 1   
    48    22    58 1   
    49    22    59 1   
    50    23    60 1   
    51    23    61 1   
    52    24    25 ar  
    53    24    30 ar  
    54    25    26 ar  
    55    25    62 1   
    56    26    27 1   
    57    26    28 ar  
    58    28    29 ar  
    59    28    31 1   
    60    29    30 ar  
    61    29    63 1   
    62    30    64 1   
    63    31    32 2   
    64    31    33 1   
    65    33    34 1   
    66    33    35 1   
    67    34    65 1   
    68    34    66 1   
    69    34    67 1   
    70    35    68 1   
    71    35    69 1   
    72    35    70 1   
@<TRIPOS>SUBSTRUCTURE
     1 668         1 TEMP              0 ****  ****    0 ROOT
