@<TRIPOS>MOLECULE
668
   70    72     1     0     0
SMALL
bcc


@<TRIPOS>ATOM
      1 F2          -7.2790    -1.8130     0.3020 f          1 668      -0.226967
      2 C24         -6.7570    -1.0090    -0.6250 c3         1 668       0.682900
      3 F           -5.6810    -1.6400    -1.1250 f          1 668      -0.226967
      4 F1          -7.6360    -0.9210    -1.6230 f          1 668      -0.226967
      5 C3          -6.3720     0.3660    -0.0540 c3         1 668       0.031800
      6 O           -6.1670     1.1630    -1.1810 oh         1 668      -0.577800
      7 C1          -7.4790     0.9710     0.8570 c3         1 668      -0.078700
      8 C2          -7.0280     2.3290     1.4010 c3         1 668      -0.095100
      9 C           -8.8270     1.1380     0.1580 c3         1 668      -0.095100
     10 C4          -5.1160     0.1350     0.8430 c          1 668       0.637100
     11 O1          -5.3050    -0.3740     1.9370 o          1 668      -0.574100
     12 N           -3.9070     0.6060     0.4660 n          1 668      -0.463800
     13 C9          -2.8570     0.6650     1.4750 c6         1 668       0.090000
     14 C8          -1.9030    -0.5160     1.3880 c6         1 668      -0.101900
     15 C7          -1.2720    -0.6150    -0.0010 c6         1 668      -0.054700
     16 C6          -2.3750    -0.5610    -1.0590 c6         1 668      -0.101900
     17 C5          -3.3390     0.6080    -0.8810 c6         1 668       0.090000
     18 C10         -0.4140    -1.8820    -0.1650 c6         1 668      -0.054700
     19 C14          0.3480    -1.9260    -1.4900 c6         1 668      -0.081900
     20 C13          1.4670    -0.8970    -1.5650 c6         1 668       0.210800
     21 N1           2.3830    -1.0320    -0.4450 nh         1 668      -0.665000
     22 C12          1.7310    -1.0260     0.8610 c6         1 668       0.210800
     23 C11          0.6310    -2.0700     0.9360 c6         1 668      -0.081900
     24 C15          3.6580    -0.5190    -0.5600 ca         1 668       0.203600
     25 C23          4.6180    -0.7660     0.4370 ca         1 668      -0.194000
     26 C22          5.9040    -0.2830     0.3120 ca         1 668       0.090400
     27 CL           7.0400    -0.6710     1.5680 cl         1 668      -0.109400
     28 C18          6.3230     0.4560    -0.7890 ca         1 668      -0.183600
     29 C17          5.3800     0.6700    -1.7870 ca         1 668      -0.046000
     30 C16          4.0760     0.2230    -1.6770 ca         1 668      -0.211000
     31 C19          7.7360     0.9030    -0.9950 c          1 668       0.692700
     32 O2           8.3900     0.4260    -1.9150 o          1 668      -0.593100
     33 N2           8.2360     1.8230    -0.1540 n          1 668      -0.467800
     34 C21          9.6370     2.1770    -0.2590 c3         1 668       0.091300
     35 C20          7.4550     2.5930     0.7890 c3         1 668       0.091300
     36 H1          -5.8630     2.0350    -0.9080 ho         1 668       0.431000
     37 H2          -7.6150     0.3040     1.7070 hc         1 668       0.091700
     38 H3          -6.9630     3.0890     0.6180 hc         1 668       0.042533
     39 H4          -7.7610     2.6910     2.1210 hc         1 668       0.042533
     40 H5          -6.0680     2.2940     1.9170 hc         1 668       0.042533
     41 H6          -9.3040     0.1940    -0.0990 hc         1 668       0.042533
     42 H7          -9.5080     1.6590     0.8320 hc         1 668       0.042533
     43 H8          -8.7450     1.7400    -0.7480 hc         1 668       0.042533
     44 H9          -2.3020     1.5920     1.2990 h1         1 668       0.060700
     45 H10         -3.3010     0.7380     2.4650 h1         1 668       0.060700
     46 H11         -1.1370    -0.3810     2.1550 hc         1 668       0.054700
     47 H12         -2.4370    -1.4400     1.6310 hc         1 668       0.054700
     48 H13         -0.6380     0.2720    -0.1300 hc         1 668       0.044700
     49 H14         -1.9510    -0.4810    -2.0620 hc         1 668       0.054700
     50 H15         -2.9450    -1.4960    -1.0340 hc         1 668       0.054700
     51 H16         -4.1120     0.5570    -1.6370 h1         1 668       0.060700
     52 H17         -2.8110     1.5560    -1.0210 h1         1 668       0.060700
     53 H18         -1.0990    -2.7380    -0.1340 hc         1 668       0.056700
     54 H19          0.7830    -2.9230    -1.6100 hc         1 668       0.053450
     55 H20         -0.3130    -1.7790    -2.3460 hc         1 668       0.053450
     56 H21          2.0140    -1.0650    -2.4930 h1         1 668       0.039450
     57 H22          1.0560     0.1210    -1.6220 h1         1 668       0.039450
     58 H23          2.4580    -1.2300     1.6420 h1         1 668       0.039450
     59 H24          1.3240    -0.0270     1.0740 h1         1 668       0.039450
     60 H25          0.1860    -2.0430     1.9320 hc         1 668       0.053450
     61 H26          1.0800    -3.0620     0.8290 hc         1 668       0.053450
     62 H27          4.3770    -1.3700     1.3000 ha         1 668       0.150000
     63 H28          5.6640     1.2350    -2.6670 ha         1 668       0.143000
     64 H29          3.3860     0.4680    -2.4710 ha         1 668       0.136000
     65 H30          9.8200     2.9100    -1.0500 h1         1 668       0.041200
     66 H31          9.9620     2.6060     0.6860 h1         1 668       0.041200
     67 H32         10.2450     1.2980    -0.4610 h1         1 668       0.041200
     68 H33          6.3930     2.3990     0.6740 h1         1 668       0.041200
     69 H34          7.7400     2.3660     1.8170 h1         1 668       0.041200
     70 H35          7.6170     3.6580     0.6160 h1         1 668       0.041200
@<TRIPOS>BOND
     1     1     2 1   
     2     2     3 1   
     3     2     4 1   
     4     2     5 1   
     5     5     6 1   
     6     5     7 1   
     7     5    10 1   
     8     6    36 1   
     9     7     8 1   
    10     7     9 1   
    11     7    37 1   
    12     8    38 1   
    13     8    39 1   
    14     8    40 1   
    15     9    41 1   
    16     9    42 1   
    17     9    43 1   
    18    10    11 2   
    19    10    12 1   
    20    12    13 1   
    21    12    17 1   
    22    13    14 1   
    23    13    44 1   
    24    13    45 1   
    25    14    15 1   
    26    14    46 1   
    27    14    47 1   
    28    15    16 1   
    29    15    18 1   
    30    15    48 1   
    31    16    17 1   
    32    16    49 1   
    33    16    50 1   
    34    17    51 1   
    35    17    52 1   
    36    18    19 1   
    37    18    23 1   
    38    18    53 1   
    39    19    20 1   
    40    19    54 1   
    41    19    55 1   
    42    20    21 1   
    43    20    56 1   
    44    20    57 1   
    45    21    22 1   
    46    21    24 1   
    47    22    23 1   
    48    22    58 1   
    49    22    59 1   
    50    23    60 1   
    51    23    61 1   
    52    24    25 ar  
    53    24    30 ar  
    54    25    26 ar  
    55    25    62 1   
    56    26    27 1   
    57    26    28 ar  
    58    28    29 ar  
    59    28    31 1   
    60    29    30 ar  
    61    29    63 1   
    62    30    64 1   
    63    31    32 2   
    64    31    33 1   
    65    33    34 1   
    66    33    35 1   
    67    34    65 1   
    68    34    66 1   
    69    34    67 1   
    70    35    68 1   
    71    35    69 1   
    72    35    70 1   
@<TRIPOS>SUBSTRUCTURE
     1 668         1 TEMP              0 ****  ****    0 ROOT
