@<TRIPOS>MOLECULE
669
   49    51     1     0     0
SMALL
No Charge or Current Charge


@<TRIPOS>ATOM
      1 O01         30.3980     8.4290    34.8740 o          1 669      -0.739000
      2 C02         30.4550     8.0980    33.6990 c          1 669       0.699000
      3 O03         30.4550     6.9340    33.3260 o          1 669      -0.739000
      4 C04         30.5340     9.2100    32.6320 c3         1 669      -0.196400
      5 C05         29.1250     9.6940    32.2010 c3         1 669      -0.048400
      6 C06         28.2630     8.6140    31.4980 c3         1 669      -0.070400
      7 C07         27.0050     9.1490    30.7660 c3         1 669      -0.084400
      8 C08         25.7860     9.5140    31.6550 c3         1 669       0.069600
      9 N09         25.9810    10.6570    32.5730 na         1 669      -0.066700
     10 C10         26.1060    10.6360    33.9890 cc         1 669      -0.025300
     11 C11         26.2670    11.9810    34.3230 cd         1 669      -0.270200
     12 C12         26.2240    12.8160    33.1550 ca         1 669      -0.054800
     13 C13         26.3250    14.2030    33.0090 ca         1 669      -0.156000
     14 C14         26.2220    14.7320    31.6970 ca         1 669       0.065100
     15 O15         26.3070    16.0840    31.4370 os         1 669      -0.365100
     16 C16         26.5150    17.0530    32.4820 c3         1 669       0.205900
     17 C17         26.5640    18.4440    31.8530 ca         1 669      -0.042300
     18 C18         27.7900    18.9920    31.4070 ca         1 669       0.145000
     19 Cl9         29.3070    18.0990    31.5470 cl         1 669      -0.188500
     20 C20         27.8310    20.2720    30.8280 ca         1 669      -0.118000
     21 C21         26.6540    21.0220    30.6820 ca         1 669      -0.105000
     22 C22         25.4310    20.4850    31.1120 ca         1 669      -0.118000
     23 C23         25.3820    19.2050    31.6910 ca         1 669       0.145000
     24 Cl4         23.8070    18.5860    32.1970 cl         1 669      -0.188500
     25 C25         26.0170    13.8620    30.6010 ca         1 669      -0.167000
     26 C26         25.9190    12.4660    30.7900 ca         1 669      -0.086000
     27 C27         26.0360    11.9690    32.0990 ca         1 669      -0.094200
     28 C28         26.0870     9.5140    34.9880 c          1 669       0.726200
     29 O29         25.9270     8.3650    34.6020 o          1 669      -0.705500
     30 O30         26.2110     9.7870    36.1760 o          1 669      -0.705500
     31 H041        31.0210     8.8420    31.7210 hc         1 669       0.003700
     32 H042        31.0180    10.1010    33.0520 hc         1 669       0.003700
     33 H051        29.2480    10.5460    31.5210 hc         1 669       0.024700
     34 H052        28.6010    10.0710    33.0840 hc         1 669       0.024700
     35 H061        27.9630     7.8470    32.2220 hc         1 669       0.052200
     36 H062        28.8890     8.1080    30.7520 hc         1 669       0.052200
     37 H071        26.6720     8.3710    30.0680 hc         1 669       0.012700
     38 H072        27.2860    10.0060    30.1440 hc         1 669       0.012700
     39 H081        25.4840     8.6300    32.2240 h1         1 669       0.064700
     40 H082        24.9420     9.7580    30.9980 h1         1 669       0.064700
     41 H11         26.3960    12.3440    35.3390 ha         1 669       0.211000
     42 H13         26.4750    14.8300    33.8830 ha         1 669       0.099000
     43 H161        27.4490    16.8480    33.0190 h1         1 669       0.055200
     44 H162        25.7090    17.0010    33.2240 h1         1 669       0.055200
     45 H20         28.7800    20.6830    30.4910 ha         1 669       0.123000
     46 H21         26.6890    22.0120    30.2330 ha         1 669       0.108000
     47 H22         24.5160    21.0600    30.9950 ha         1 669       0.123000
     48 H25         25.9330    14.2730    29.5980 ha         1 669       0.092000
     49 H26         25.7550    11.8060    29.9430 ha         1 669       0.097000
@<TRIPOS>BOND
     1     1     2 1   
     2     2     3 1   
     3     2     4 1   
     4     4     5 1   
     5     4    31 1   
     6     4    32 1   
     7     5     6 1   
     8     5    33 1   
     9     5    34 1   
    10     6     7 1   
    11     6    35 1   
    12     6    36 1   
    13     7     8 1   
    14     7    37 1   
    15     7    38 1   
    16     8     9 1   
    17     8    39 1   
    18     8    40 1   
    19     9    10 1   
    20     9    27 1   
    21    10    11 2   
    22    10    28 1   
    23    11    12 1   
    24    11    41 1   
    25    12    13 ar  
    26    12    27 ar  
    27    13    14 ar  
    28    13    42 1   
    29    14    15 1   
    30    14    25 ar  
    31    15    16 1   
    32    16    17 1   
    33    16    43 1   
    34    16    44 1   
    35    17    18 ar  
    36    17    23 ar  
    37    18    19 1   
    38    18    20 ar  
    39    20    21 ar  
    40    20    45 1   
    41    21    22 ar  
    42    21    46 1   
    43    22    23 ar  
    44    22    47 1   
    45    23    24 1   
    46    25    26 ar  
    47    25    48 1   
    48    26    27 ar  
    49    26    49 1   
    50    28    29 1   
    51    28    30 1   
@<TRIPOS>SUBSTRUCTURE
     1 669         1 TEMP              0 ****  ****    0 ROOT
