@<TRIPOS>MOLECULE
669
   49    51     1     0     0
SMALL
abcg2


@<TRIPOS>ATOM
      1 O01         29.8790     9.6400    34.8330 o          1 669      -0.739000
      2 C02         30.3590     8.9990    33.8590 c          1 669       0.699000
      3 O03         30.7980     7.8190    33.9050 o          1 669      -0.739000
      4 C04         30.4090     9.7320    32.5070 c3         1 669      -0.196400
      5 C05         29.0210    10.0590    31.9460 c3         1 669      -0.048400
      6 C06         28.2130     8.8110    31.5810 c3         1 669      -0.070400
      7 C07         26.9260     9.0860    30.7950 c3         1 669      -0.084400
      8 C08         25.6870     9.4120    31.6340 c3         1 669       0.069600
      9 N09         25.8390    10.5550    32.5280 na         1 669      -0.066700
     10 C10         26.0430    10.5440    33.9040 cc         1 669      -0.025300
     11 C11         26.2930    11.8350    34.3250 cd         1 669      -0.270200
     12 C12         26.2410    12.6870    33.1870 ca         1 669      -0.054800
     13 C13         26.3960    14.0740    33.0030 ca         1 669      -0.156000
     14 C14         26.2700    14.5840    31.7230 ca         1 669       0.065100
     15 O15         26.3930    15.9170    31.4080 os         1 669      -0.365100
     16 C16         26.6470    16.8240    32.4820 c3         1 669       0.205900
     17 C17         26.7040    18.2060    31.9050 ca         1 669      -0.042300
     18 C18         27.8950    18.7540    31.4180 ca         1 669       0.145000
     19 CL9         29.3670    17.8070    31.4540 cl         1 669      -0.188500
     20 C20         27.9670    20.0340    30.8860 ca         1 669      -0.118000
     21 C21         26.8140    20.8030    30.8210 ca         1 669      -0.105000
     22 C22         25.6040    20.2960    31.2750 ca         1 669      -0.118000
     23 C23         25.5660    19.0120    31.8010 ca         1 669       0.145000
     24 CL4         24.0130    18.4030    32.3350 cl         1 669      -0.188500
     25 C25         25.9960    13.7420    30.6230 ca         1 669      -0.167000
     26 C26         25.8430    12.3780    30.7870 ca         1 669      -0.086000
     27 C27         25.9610    11.8510    32.0760 ca         1 669      -0.094200
     28 C28         25.9250     9.3390    34.8110 c          1 669       0.726200
     29 O29         25.3480     8.3090    34.3750 o          1 669      -0.705500
     30 O30         26.3960     9.4860    35.9670 o          1 669      -0.705500
     31 H041        30.9620     9.1250    31.7870 hc         1 669       0.003700
     32 H042        30.9620    10.6650    32.6530 hc         1 669       0.003700
     33 H051        29.1400    10.6700    31.0450 hc         1 669       0.024700
     34 H052        28.4780    10.6710    32.6680 hc         1 669       0.024700
     35 H061        27.9800     8.2390    32.4860 hc         1 669       0.052200
     36 H062        28.8540     8.1650    30.9720 hc         1 669       0.052200
     37 H071        26.6620     8.2000    30.2110 hc         1 669       0.012700
     38 H072        27.1140     9.8830    30.0700 hc         1 669       0.012700
     39 H081        25.4270     8.5670    32.2640 h1         1 669       0.064700
     40 H082        24.8440     9.6150    30.9690 h1         1 669       0.064700
     41 H11         26.4690    12.1240    35.3470 ha         1 669       0.211000
     42 H13         26.6060    14.7090    33.8510 ha         1 669       0.099000
     43 H161        27.5920    16.5750    32.9660 h1         1 669       0.055200
     44 H162        25.8510    16.7560    33.2240 h1         1 669       0.055200
     45 H20         28.9110    20.4160    30.5260 ha         1 669       0.123000
     46 H21         26.8570    21.8030    30.4100 ha         1 669       0.108000
     47 H22         24.6990    20.8840    31.2190 ha         1 669       0.123000
     48 H25         25.9070    14.1910    29.6430 ha         1 669       0.092000
     49 H26         25.6310    11.7490    29.9330 ha         1 669       0.097000
@<TRIPOS>BOND
     1     1     2 1   
     2     2     3 1   
     3     2     4 1   
     4     4     5 1   
     5     4    31 1   
     6     4    32 1   
     7     5     6 1   
     8     5    33 1   
     9     5    34 1   
    10     6     7 1   
    11     6    35 1   
    12     6    36 1   
    13     7     8 1   
    14     7    37 1   
    15     7    38 1   
    16     8     9 1   
    17     8    39 1   
    18     8    40 1   
    19     9    10 1   
    20     9    27 1   
    21    10    11 2   
    22    10    28 1   
    23    11    12 1   
    24    11    41 1   
    25    12    13 ar  
    26    12    27 ar  
    27    13    14 ar  
    28    13    42 1   
    29    14    15 1   
    30    14    25 ar  
    31    15    16 1   
    32    16    17 1   
    33    16    43 1   
    34    16    44 1   
    35    17    18 ar  
    36    17    23 ar  
    37    18    19 1   
    38    18    20 ar  
    39    20    21 ar  
    40    20    45 1   
    41    21    22 ar  
    42    21    46 1   
    43    22    23 ar  
    44    22    47 1   
    45    23    24 1   
    46    25    26 ar  
    47    25    48 1   
    48    26    27 ar  
    49    26    49 1   
    50    28    29 1   
    51    28    30 1   
@<TRIPOS>SUBSTRUCTURE
     1 669         1 TEMP              0 ****  ****    0 ROOT
