@<TRIPOS>MOLECULE
66A
   62    67     1     0     0
SMALL
No Charge or Current Charge


@<TRIPOS>ATOM
      1 C10         -0.9720    -1.7490    -0.8370 ca         1 66A       0.021200
      2 C11         -1.9400    -0.8540    -0.3460 ca         1 66A      -0.144000
      3 C12         -3.2280    -0.8100    -0.9040 ca         1 66A       0.144100
      4 C13         -3.5530    -1.6700    -1.9750 ca         1 66A      -0.205000
      5 C14         -2.5870    -2.5580    -2.4790 ca         1 66A      -0.074000
      6 C15         -1.3020    -2.5930    -1.9130 ca         1 66A      -0.155000
      7 C19         -6.1510     2.6290    -0.4760 ca         1 66A      -0.084000
      8 C20         -6.8160     3.6190     0.2690 ca         1 66A      -0.115000
      9 C21         -7.5260     3.2690     1.4300 ca         1 66A      -0.098000
     10 C22         -7.5690     1.9280     1.8470 ca         1 66A      -0.115000
     11 C27          4.3910     1.8980     0.7870 cy         1 66A      -0.077700
     12 C31          5.5530     5.3840    -0.5900 cy         1 66A       0.144300
     13 C32          6.9430     4.9580    -1.1670 cy         1 66A      -0.107400
     14 C33          6.8430     3.8110    -0.1090 cy         1 66A       0.144300
     15 C29          4.3870     3.4260     0.6090 c3         1 66A       0.178800
     16 C26          3.2070     1.2360     1.5720 cy         1 66A      -0.091900
     17 C28          3.9300     1.0000    -0.4120 cy         1 66A      -0.091900
     18 C25          3.4680    -0.0230     0.6790 cy         1 66A       0.059300
     19 N30          5.3750     3.9220    -0.3530 nq         1 66A      -0.713600
     20 C06          0.9500    -4.2410     0.3150 ca         1 66A       0.432900
     21 N05          1.9010    -5.0570     0.7890 nb         1 66A      -0.305000
     22 C04          3.0750    -4.4690     1.1240 ca         1 66A       0.178900
     23 C07          1.1870    -2.8680     0.1800 ca         1 66A      -0.242800
     24 C02          2.4000    -2.3460     0.5660 ca         1 66A       0.152500
     25 N03          3.3720    -3.1510     1.0430 nb         1 66A      -0.234000
     26 N01          2.3900    -0.9580     0.3980 na         1 66A      -0.163400
     27 C08          0.3670    -1.7750    -0.2530 cc         1 66A      -0.066400
     28 C09          1.1110    -0.6190    -0.1100 cd         1 66A      -0.155100
     29 O16         -4.1310     0.0860    -0.3700 os         1 66A      -0.343100
     30 C17         -5.4730     0.2100    -0.8710 c3         1 66A       0.211900
     31 C18         -6.1930     1.2820    -0.0640 ca         1 66A      -0.097300
     32 C23         -6.9040     0.9370     1.1030 ca         1 66A      -0.084000
     33 H1          -1.6960    -0.1920     0.4810 ha         1 66A       0.130000
     34 H2          -4.5390    -1.6620    -2.4300 ha         1 66A       0.116000
     35 H3          -2.8320    -3.2150    -3.3100 ha         1 66A       0.112000
     36 H4          -0.5540    -3.2710    -2.3200 ha         1 66A       0.125000
     37 H5          -5.6020     2.9090    -1.3720 ha         1 66A       0.114500
     38 H6          -6.7810     4.6580    -0.0540 ha         1 66A       0.114500
     39 H7          -8.0400     4.0360     2.0060 ha         1 66A       0.113000
     40 H8          -8.1170     1.6560     2.7460 ha         1 66A       0.114500
     41 H9           5.3740     1.6130     1.1840 hc         1 66A       0.060700
     42 H11          4.8710     5.8430    -1.3150 h1         1 66A       0.045450
     43 H12          6.9270     4.6260    -2.2110 hc         1 66A       0.058200
     44 H13          7.7610     5.6720    -1.0280 hc         1 66A       0.058200
     45 H14          7.3120     2.8650    -0.4050 h1         1 66A       0.045450
     46 H15          7.1730     4.1040     0.8960 h1         1 66A       0.045450
     47 H16         -1.0330    -4.2230    -0.1420 hn         1 66A       0.498000
     48 H17         -0.4210    -5.7570     0.3900 hn         1 66A       0.498000
     49 H18          3.3870     3.7290     0.2730 h1         1 66A       0.032700
     50 H19          4.5720     3.8870     1.5880 h1         1 66A       0.032700
     51 H20          3.3620     1.0980     2.6480 hc         1 66A       0.062700
     52 H21          2.2310     1.7130     1.4200 hc         1 66A       0.062700
     53 H22          3.1210     1.4250    -1.0180 hc         1 66A       0.062700
     54 H23          4.7230     0.6560    -1.0840 hc         1 66A       0.062700
     55 H24          4.3040    -0.6260     1.0550 h1         1 66A       0.100700
     56 H26          3.8560    -5.1230     1.5080 h5         1 66A       0.042100
     57 H27          0.8380     0.4040    -0.3520 h4         1 66A       0.220000
     58 H28         -5.4660     0.4930    -1.9310 h1         1 66A       0.040700
     59 H29         -6.0110    -0.7430    -0.7750 h1         1 66A       0.040700
     60 H30         -6.9410    -0.0990     1.4330 ha         1 66A       0.114500
     61 N24         -0.2340    -4.8290     0.0210 nv         1 66A      -1.072900
     62 H10          5.6180     5.9990     0.3170 h1         1 66A       0.045450
@<TRIPOS>BOND
     1     1     2 ar  
     2     1     6 ar  
     3     1    27 1   
     4     2     3 ar  
     5     2    33 1   
     6     3     4 ar  
     7     3    29 1   
     8     4     5 ar  
     9     4    34 1   
    10     5     6 ar  
    11     5    35 1   
    12     6    36 1   
    13     7     8 ar  
    14     7    31 ar  
    15     7    37 1   
    16     8     9 ar  
    17     8    38 1   
    18     9    10 ar  
    19     9    39 1   
    20    10    32 ar  
    21    10    40 1   
    22    11    15 1   
    23    11    16 1   
    24    11    17 1   
    25    11    41 1   
    26    12    13 1   
    27    12    19 1   
    28    12    42 1   
    29    12    62 1   
    30    13    14 1   
    31    13    43 1   
    32    13    44 1   
    33    14    19 1   
    34    14    45 1   
    35    14    46 1   
    36    15    19 1   
    37    15    49 1   
    38    15    50 1   
    39    16    18 1   
    40    16    51 1   
    41    16    52 1   
    42    17    18 1   
    43    17    53 1   
    44    17    54 1   
    45    18    26 1   
    46    18    55 1   
    47    20    21 ar  
    48    20    23 ar  
    49    20    61 1   
    50    21    22 ar  
    51    22    25 ar  
    52    22    56 1   
    53    23    24 ar  
    54    23    27 1   
    55    24    25 ar  
    56    24    26 1   
    57    26    28 1   
    58    27    28 2   
    59    28    57 1   
    60    29    30 1   
    61    30    31 1   
    62    30    58 1   
    63    30    59 1   
    64    31    32 ar  
    65    32    60 1   
    66    47    61 1   
    67    48    61 1   
@<TRIPOS>SUBSTRUCTURE
     1 66A         1 TEMP              0 ****  ****    0 ROOT
