@<TRIPOS>MOLECULE
66A
   62    67     1     0     0
SMALL
bcc


@<TRIPOS>ATOM
      1 C10         -0.9270    -1.6340    -0.8610 ca         1 66A       0.021200
      2 C11         -1.8700    -0.7460    -0.3580 ca         1 66A      -0.162000
      3 C12         -3.1350    -0.6370    -0.9390 ca         1 66A       0.144100
      4 C13         -3.4660    -1.4370    -2.0290 ca         1 66A      -0.223000
      5 C14         -2.5200    -2.3250    -2.5280 ca         1 66A      -0.092000
      6 C15         -1.2620    -2.4290    -1.9630 ca         1 66A      -0.173000
      7 C19         -6.0080     2.7560    -0.4320 ca         1 66A      -0.102000
      8 C20         -6.6360     3.7040     0.3650 ca         1 66A      -0.133000
      9 C21         -7.2460     3.3200     1.5520 ca         1 66A      -0.116000
     10 C22         -7.2290     1.9850     1.9370 ca         1 66A      -0.133000
     11 C27          4.3190     1.7990     0.8620 cy         1 66A      -0.077700
     12 C31          5.0420     4.9610    -1.1230 cy         1 66A       0.144300
     13 C32          6.5710     5.0530    -1.0180 cy         1 66A      -0.107400
     14 C33          6.4520     3.8840    -0.0290 cy         1 66A       0.144300
     15 C29          4.0860     3.2090     0.3720 c3         1 66A       0.178800
     16 C26          3.2020     1.1300     1.6880 cy         1 66A      -0.091900
     17 C28          4.1950     0.6590    -0.1680 cy         1 66A      -0.091900
     18 C25          3.4950    -0.1700     0.9220 cy         1 66A       0.030000
     19 N30          5.1100     3.6120    -0.5560 nq         1 66A      -0.713600
     20 C06          0.9760    -4.2490     0.2460 ca         1 66A       0.761200
     21 N05          1.9670    -5.0100     0.7210 nb         1 66A      -0.831000
     22 C04          3.0920    -4.4220     1.1190 ca         1 66A       0.704900
     23 C07          1.1630    -2.8530     0.1490 ca         1 66A      -0.373400
     24 C02          2.3880    -2.3850     0.6420 ca         1 66A       0.480800
     25 N03          3.3780    -3.1370     1.1260 nb         1 66A      -0.760000
     26 N01          2.3950    -1.0290     0.5580 na         1 66A      -0.134100
     27 C08          0.4070    -1.7040    -0.2570 cc         1 66A      -0.066400
     28 C09          1.2020    -0.6250     0.0160 cd         1 66A      -0.105100
     29 O16         -3.9660     0.2580    -0.3690 os         1 66A      -0.319900
     30 C17         -5.2810     0.3980    -0.8950 c3         1 66A       0.188700
     31 C18         -5.9880     1.4170    -0.0540 ca         1 66A      -0.097300
     32 C23         -6.6020     1.0400     1.1370 ca         1 66A      -0.102000
     33 H1          -1.6350    -0.1380     0.5080 ha         1 66A       0.148000
     34 H2          -4.4390    -1.3840    -2.4980 ha         1 66A       0.134000
     35 H3          -2.7760    -2.9380    -3.3830 ha         1 66A       0.130000
     36 H4          -0.5300    -3.1020    -2.3930 ha         1 66A       0.143000
     37 H5          -5.5370     3.0590    -1.3590 ha         1 66A       0.132500
     38 H6          -6.6490     4.7420     0.0590 ha         1 66A       0.132500
     39 H7          -7.7370     4.0580     2.1730 ha         1 66A       0.131000
     40 H8          -7.7060     1.6800     2.8590 ha         1 66A       0.132500
     41 H9           5.2730     1.7340     1.3950 hc         1 66A       0.060700
     42 H11          4.5850     5.0280    -2.1140 h1         1 66A       0.045450
     43 H12          7.0770     4.7780    -1.9420 hc         1 66A       0.058200
     44 H13          6.9890     5.9840    -0.6400 hc         1 66A       0.058200
     45 H14          7.1680     3.0630    -0.1120 h1         1 66A       0.045450
     46 H15          6.4400     4.2330     1.0140 h1         1 66A       0.045450
     47 H16         -0.9840    -4.3440    -0.3460 hn         1 66A       0.442800
     48 H17         -0.2670    -5.8440     0.0850 hn         1 66A       0.442800
     49 H18          3.1180     3.2540    -0.1400 h1         1 66A       0.032700
     50 H19          4.0210     3.8970     1.2350 h1         1 66A       0.032700
     51 H20          3.3000     1.1020     2.7730 hc         1 66A       0.062700
     52 H21          2.2230     1.5450     1.4350 hc         1 66A       0.062700
     53 H22          3.5090     0.9330    -0.9740 hc         1 66A       0.062700
     54 H23          5.1030     0.2460    -0.6050 hc         1 66A       0.062700
     55 H24          4.2120    -0.7850     1.4620 h1         1 66A       0.100700
     56 H26          3.8630    -5.0900     1.4890 h5         1 66A       0.042100
     57 H27          0.9980     0.4190    -0.1660 h4         1 66A       0.170000
     58 H28         -5.2400     0.7210    -1.9400 h1         1 66A       0.040700
     59 H29         -5.8090    -0.5610    -0.8610 h1         1 66A       0.040700
     60 H30         -6.5960    -0.0010     1.4390 ha         1 66A       0.132500
     61 N24         -0.1550    -4.8660    -0.1250 nv         1 66A      -0.962500
     62 H10          4.5440     5.6840    -0.4620 h1         1 66A       0.045450
@<TRIPOS>BOND
     1     1     2 ar  
     2     1     6 ar  
     3     1    27 1   
     4     2     3 ar  
     5     2    33 1   
     6     3     4 ar  
     7     3    29 1   
     8     4     5 ar  
     9     4    34 1   
    10     5     6 ar  
    11     5    35 1   
    12     6    36 1   
    13     7     8 ar  
    14     7    31 ar  
    15     7    37 1   
    16     8     9 ar  
    17     8    38 1   
    18     9    10 ar  
    19     9    39 1   
    20    10    32 ar  
    21    10    40 1   
    22    11    15 1   
    23    11    16 1   
    24    11    17 1   
    25    11    41 1   
    26    12    13 1   
    27    12    19 1   
    28    12    42 1   
    29    12    62 1   
    30    13    14 1   
    31    13    43 1   
    32    13    44 1   
    33    14    19 1   
    34    14    45 1   
    35    14    46 1   
    36    15    19 1   
    37    15    49 1   
    38    15    50 1   
    39    16    18 1   
    40    16    51 1   
    41    16    52 1   
    42    17    18 1   
    43    17    53 1   
    44    17    54 1   
    45    18    26 1   
    46    18    55 1   
    47    20    21 ar  
    48    20    23 ar  
    49    20    61 1   
    50    21    22 ar  
    51    22    25 ar  
    52    22    56 1   
    53    23    24 ar  
    54    23    27 1   
    55    24    25 ar  
    56    24    26 1   
    57    26    28 1   
    58    27    28 2   
    59    28    57 1   
    60    29    30 1   
    61    30    31 1   
    62    30    58 1   
    63    30    59 1   
    64    31    32 ar  
    65    32    60 1   
    66    47    61 1   
    67    48    61 1   
@<TRIPOS>SUBSTRUCTURE
     1 66A         1 TEMP              0 ****  ****    0 ROOT
