@<TRIPOS>MOLECULE
66B
   62    61     1     0     0
SMALL
bcc


@<TRIPOS>ATOM
      1 O25        -10.3870     1.6530     1.1130 o          1 66B      -0.848300
      2 C24         -9.4960     2.5240     1.0830 c          1 66B       0.927600
      3 O26         -9.6530     3.7470     1.2880 o          1 66B      -0.848300
      4 C23         -8.0590     2.0760     0.7650 c3         1 66B      -0.205400
      5 C22         -7.8560     0.5910     0.5140 c3         1 66B      -0.054400
      6 C21         -6.3980     0.2510     0.2270 c3         1 66B      -0.073400
      7 C20         -6.1880    -1.2330    -0.0220 c3         1 66B      -0.174400
      8 C19         -4.7630    -1.6410    -0.2940 c          1 66B       0.569100
      9 O27         -3.8710    -0.8360    -0.4380 o          1 66B      -0.523100
     10 C18         -4.5110    -3.1320    -0.3740 c3         1 66B      -0.158200
     11 C17         -3.1340    -3.4840    -0.8320 c2         1 66B      -0.137200
     12 C16         -2.2500    -4.1600    -0.1080 c2         1 66B      -0.180200
     13 C15         -0.8620    -4.4980    -0.5500 c3         1 66B      -0.033200
     14 C14          0.1970    -3.8250     0.3340 c3         1 66B      -0.045200
     15 C13          1.5860    -4.2300    -0.0450 c2         1 66B      -0.163200
     16 C12          2.5790    -3.4380    -0.4470 c2         1 66B      -0.167200
     17 C11          2.5470    -1.9420    -0.5850 c3         1 66B      -0.014000
     18 C10          3.2670    -1.2950     0.5630 c2         1 66B      -0.153200
     19 C9           4.4140    -0.6190     0.5260 c2         1 66B      -0.172200
     20 C8           5.2530    -0.3050    -0.6800 c3         1 66B      -0.010000
     21 C7           5.1510     1.1550    -1.0190 c2         1 66B      -0.158200
     22 C6           6.0500     2.1060    -0.7740 c2         1 66B      -0.169200
     23 C5           7.3950     1.9470    -0.1260 c3         1 66B      -0.012000
     24 C4           8.4990     2.2690    -1.0920 c2         1 66B      -0.160200
     25 C3           9.3000     3.3340    -1.0730 c2         1 66B      -0.171200
     26 C2           9.3070     4.4470    -0.0710 c3         1 66B      -0.044200
     27 C1          10.5340     4.3890     0.8390 c3         1 66B      -0.085100
     28 H2          -7.7100     2.6460    -0.1040 hc         1 66B       0.017200
     29 H3          -7.4110     2.4000     1.5880 hc         1 66B       0.017200
     30 H4          -8.1970     0.0180     1.3810 hc         1 66B       0.036200
     31 H5          -8.4780     0.2650    -0.3250 hc         1 66B       0.036200
     32 H6          -6.0550     0.8220    -0.6410 hc         1 66B       0.039700
     33 H7          -5.7770     0.5750     1.0670 hc         1 66B       0.039700
     34 H8          -6.5560    -1.8280     0.8220 hc         1 66B       0.055700
     35 H9          -6.7880    -1.5680    -0.8770 hc         1 66B       0.055700
     36 H10         -4.7150    -3.5530     0.6170 hc         1 66B       0.063200
     37 H11         -5.2700    -3.5680    -1.0330 hc         1 66B       0.063200
     38 H12         -2.8610    -3.1580    -1.8330 ha         1 66B       0.123000
     39 H14         -2.5240    -4.4820     0.8950 ha         1 66B       0.113000
     40 H16         -0.7160    -5.5830    -0.5110 hc         1 66B       0.040700
     41 H17         -0.7140    -4.1980    -1.5910 hc         1 66B       0.040700
     42 H18          0.0690    -2.7420     0.2890 hc         1 66B       0.051700
     43 H19          0.0170    -4.1110     1.3760 hc         1 66B       0.051700
     44 H20          1.7870    -5.2970     0.0150 ha         1 66B       0.111000
     45 H21          3.5370    -3.8980    -0.6740 ha         1 66B       0.112000
     46 H22          2.9970    -1.6550    -1.5380 hc         1 66B       0.054700
     47 H23          1.5170    -1.5780    -0.6080 hc         1 66B       0.054700
     48 H24          2.7880    -1.4250     1.5300 ha         1 66B       0.121000
     49 H25          4.7930    -0.2160     1.4600 ha         1 66B       0.116000
     50 H26          6.2890    -0.5840    -0.4740 hc         1 66B       0.047700
     51 H27          4.9370    -0.8970    -1.5420 hc         1 66B       0.047700
     52 H28          4.2150     1.4520    -1.4860 ha         1 66B       0.123000
     53 H29          5.8070     3.1210    -1.0750 ha         1 66B       0.119000
     54 H30          7.4440     2.6000     0.7490 hc         1 66B       0.050200
     55 H31          7.5290     0.9280     0.2430 hc         1 66B       0.050200
     56 H32          8.6280     1.5480    -1.8950 ha         1 66B       0.117000
     57 H33         10.0550     3.4080    -1.8520 ha         1 66B       0.113000
     58 H34          9.3040     5.4020    -0.6050 hc         1 66B       0.043700
     59 H35          8.4010     4.4350     0.5360 hc         1 66B       0.043700
     60 H36         10.5560     5.2390     1.5220 hc         1 66B       0.031367
     61 H37         10.5310     3.4760     1.4350 hc         1 66B       0.031367
     62 H38         11.4590     4.4040     0.2610 hc         1 66B       0.031367
@<TRIPOS>BOND
     1     1     2 1   
     2     2     3 1   
     3     2     4 1   
     4     4     5 1   
     5     4    28 1   
     6     4    29 1   
     7     5     6 1   
     8     5    30 1   
     9     5    31 1   
    10     6     7 1   
    11     6    32 1   
    12     6    33 1   
    13     7     8 1   
    14     7    34 1   
    15     7    35 1   
    16     8     9 2   
    17     8    10 1   
    18    10    11 1   
    19    10    36 1   
    20    10    37 1   
    21    11    12 2   
    22    11    38 1   
    23    12    13 1   
    24    12    39 1   
    25    13    14 1   
    26    13    40 1   
    27    13    41 1   
    28    14    15 1   
    29    14    42 1   
    30    14    43 1   
    31    15    16 2   
    32    15    44 1   
    33    16    17 1   
    34    16    45 1   
    35    17    18 1   
    36    17    46 1   
    37    17    47 1   
    38    18    19 2   
    39    18    48 1   
    40    19    20 1   
    41    19    49 1   
    42    20    21 1   
    43    20    50 1   
    44    20    51 1   
    45    21    22 2   
    46    21    52 1   
    47    22    23 1   
    48    22    53 1   
    49    23    24 1   
    50    23    54 1   
    51    23    55 1   
    52    24    25 2   
    53    24    56 1   
    54    25    26 1   
    55    25    57 1   
    56    26    27 1   
    57    26    58 1   
    58    26    59 1   
    59    27    60 1   
    60    27    61 1   
    61    27    62 1   
@<TRIPOS>SUBSTRUCTURE
     1 66B         1 TEMP              0 ****  ****    0 ROOT
