@<TRIPOS>MOLECULE
66B
   62    61     1     0     0
SMALL
No Charge or Current Charge


@<TRIPOS>ATOM
      1 O25         -9.7730    -0.1160     2.0090 o          1 66B      -0.743000
      2 C24         -9.2500     0.8860     1.5460 c          1 66B       0.717000
      3 O26         -9.3100     1.9850     2.0760 o          1 66B      -0.743000
      4 C23         -8.4220     0.7450     0.2570 c3         1 66B      -0.205400
      5 C22         -6.9500     0.4090     0.5990 c3         1 66B      -0.054400
      6 C21         -6.0560     0.2520    -0.6510 c3         1 66B      -0.073400
      7 C20         -4.5860    -0.0830    -0.3050 c3         1 66B      -0.174400
      8 C19         -3.7370    -0.2450    -1.5750 c          1 66B       0.569100
      9 O27         -3.2100     0.7180    -2.1200 o          1 66B      -0.523100
     10 C18         -3.5720    -1.6710    -2.1250 c3         1 66B      -0.158200
     11 C17         -2.2170    -2.2610    -1.7750 c2         1 66B      -0.187200
     12 C16         -2.0240    -3.3480    -1.0130 c2         1 66B      -0.230200
     13 C15         -0.6740    -3.9370    -0.6580 c3         1 66B      -0.033200
     14 C14         -0.3690    -3.8280     0.8490 c3         1 66B      -0.045200
     15 C13          0.9890    -4.4020     1.2060 c2         1 66B      -0.213200
     16 C12          2.1700    -3.7570     1.2090 c2         1 66B      -0.217200
     17 C11          2.4330    -2.3130     0.8220 c3         1 66B      -0.014000
     18 C10          3.0480    -1.5480     1.9780 c2         1 66B      -0.203200
     19 C9           3.9140    -0.5210     1.9000 c2         1 66B      -0.222200
     20 C8           4.4590     0.1230     0.6380 c3         1 66B      -0.010000
     21 C7           4.5540     1.6290     0.7960 c2         1 66B      -0.208200
     22 C6           5.5300     2.4330     0.3370 c2         1 66B      -0.219200
     23 C5           6.7520     2.0230    -0.4630 c3         1 66B      -0.012000
     24 C4           7.1600     3.1220    -1.4270 c2         1 66B      -0.210200
     25 C3           8.3400     3.7660    -1.4840 c2         1 66B      -0.221200
     26 C2           9.5370     3.5730    -0.5720 c3         1 66B      -0.044200
     27 C1          10.5000     2.4930    -1.0970 c3         1 66B      -0.085100
     28 H2          -8.7900    -0.0960    -0.3450 hc         1 66B       0.017200
     29 H3          -8.3940     1.6970    -0.2870 hc         1 66B       0.017200
     30 H4          -6.5390     1.2010     1.2380 hc         1 66B       0.036200
     31 H5          -6.9190    -0.5190     1.1830 hc         1 66B       0.036200
     32 H6          -6.4670    -0.5400    -1.2900 hc         1 66B       0.039700
     33 H7          -6.0860     1.1810    -1.2350 hc         1 66B       0.039700
     34 H8          -4.1710     0.7250     0.3090 hc         1 66B       0.055700
     35 H9          -4.5880    -1.0260     0.2530 hc         1 66B       0.055700
     36 H10         -4.3620    -2.3090    -1.7120 hc         1 66B       0.063200
     37 H11         -3.6720    -1.6350    -3.2170 hc         1 66B       0.063200
     38 H12         -1.3640    -1.7210    -2.1960 ha         1 66B       0.173000
     39 H14         -2.8740    -3.8890    -0.5920 ha         1 66B       0.163000
     40 H16         -0.6390    -4.9920    -0.9570 hc         1 66B       0.040700
     41 H17          0.1220    -3.4290    -1.2170 hc         1 66B       0.040700
     42 H18         -0.4370    -2.7750     1.1510 hc         1 66B       0.051700
     43 H19         -1.1520    -4.3500     1.4140 hc         1 66B       0.051700
     44 H20          0.9540    -5.4540     1.4990 ha         1 66B       0.161000
     45 H21          3.0730    -4.2990     1.4950 ha         1 66B       0.162000
     46 H22          3.0980    -2.2950    -0.0500 hc         1 66B       0.054700
     47 H23          1.5120    -1.8110     0.5040 hc         1 66B       0.054700
     48 H24          2.7310    -1.9050     2.9600 ha         1 66B       0.171000
     49 H25          4.2890    -0.0680     2.8200 ha         1 66B       0.166000
     50 H26          5.4430    -0.3080     0.4150 hc         1 66B       0.047700
     51 H27          3.8200    -0.1060    -0.2230 hc         1 66B       0.047700
     52 H28          3.7200     2.0650     1.3510 ha         1 66B       0.173000
     53 H29          5.4750     3.5060     0.5330 ha         1 66B       0.169000
     54 H30          7.5680     1.7710     0.2240 hc         1 66B       0.050200
     55 H31          6.5500     1.1080    -1.0340 hc         1 66B       0.050200
     56 H32          6.3810     3.3710    -2.1510 ha         1 66B       0.167000
     57 H33          8.4930     4.5320    -2.2470 ha         1 66B       0.163000
     58 H34         10.0830     4.5200    -0.4710 hc         1 66B       0.043700
     59 H35          9.2190     3.3040     0.4420 hc         1 66B       0.043700
     60 H36         11.3570     2.3830    -0.4220 hc         1 66B       0.031367
     61 H37          9.9910     1.5240    -1.1690 hc         1 66B       0.031367
     62 H38         10.8770     2.7610    -2.0910 hc         1 66B       0.031367
@<TRIPOS>BOND
     1     1     2 1   
     2     2     3 1   
     3     2     4 1   
     4     4     5 1   
     5     4    28 1   
     6     4    29 1   
     7     5     6 1   
     8     5    30 1   
     9     5    31 1   
    10     6     7 1   
    11     6    32 1   
    12     6    33 1   
    13     7     8 1   
    14     7    34 1   
    15     7    35 1   
    16     8     9 2   
    17     8    10 1   
    18    10    11 1   
    19    10    36 1   
    20    10    37 1   
    21    11    12 2   
    22    11    38 1   
    23    12    13 1   
    24    12    39 1   
    25    13    14 1   
    26    13    40 1   
    27    13    41 1   
    28    14    15 1   
    29    14    42 1   
    30    14    43 1   
    31    15    16 2   
    32    15    44 1   
    33    16    17 1   
    34    16    45 1   
    35    17    18 1   
    36    17    46 1   
    37    17    47 1   
    38    18    19 2   
    39    18    48 1   
    40    19    20 1   
    41    19    49 1   
    42    20    21 1   
    43    20    50 1   
    44    20    51 1   
    45    21    22 2   
    46    21    52 1   
    47    22    23 1   
    48    22    53 1   
    49    23    24 1   
    50    23    54 1   
    51    23    55 1   
    52    24    25 2   
    53    24    56 1   
    54    25    26 1   
    55    25    57 1   
    56    26    27 1   
    57    26    58 1   
    58    26    59 1   
    59    27    60 1   
    60    27    61 1   
    61    27    62 1   
@<TRIPOS>SUBSTRUCTURE
     1 66B         1 TEMP              0 ****  ****    0 ROOT
