@<TRIPOS>MOLECULE
66C
   61    65     1     0     0
SMALL
bcc


@<TRIPOS>ATOM
      1 OBE         17.3130   123.7360    -1.2720 o          1 66C      -0.592100
      2 CBD         18.4530   123.8050    -1.6980 c          1 66C       0.684100
      3 CF          19.5990   124.2970    -0.8450 c3         1 66C      -0.162400
      4 CH          19.2340   124.4120     0.6270 c3         1 66C       0.157800
      5 NBH         20.3610   124.9680     1.3620 n8         1 66C      -0.884800
      6 CAT         17.7420   122.8260    -3.8110 c3         1 66C       0.150300
      7 NAU         18.7570   123.4170    -2.9730 n          1 66C      -0.405000
      8 CAP         20.0150   123.6890    -3.5730 ca         1 66C       0.049600
      9 CAO         20.9430   122.6740    -3.7520 ca         1 66C      -0.132000
     10 CAN         22.1720   122.9560    -4.3310 ca         1 66C      -0.132000
     11 CAS         22.4750   124.2550    -4.7190 ca         1 66C      -0.135000
     12 CAR         21.5460   125.2690    -4.5460 ca         1 66C      -0.096000
     13 CAQ         20.3000   124.9910    -3.9920 ca         1 66C      -0.082500
     14 CAY         19.2930   126.0220    -3.7690 cc         1 66C       0.276800
     15 N03         19.5460   127.1790    -3.1190 nc         1 66C      -0.367000
     16 N02         18.4510   127.8340    -2.9760 nd         1 66C      -0.192800
     17 CAV         17.0890   123.7090    -4.8530 ca         1 66C      -0.072300
     18 CAZ         16.3120   123.0190    -5.7870 ca         1 66C      -0.144000
     19 CBA         15.6040   123.6690    -6.7790 ca         1 66C      -0.100000
     20 CBB         15.6720   125.0540    -6.8700 ca         1 66C      -0.093000
     21 CBC         16.4460   125.7520    -5.9660 ca         1 66C      -0.094000
     22 CAW         17.1510   125.1030    -4.9410 ca         1 66C      -0.019000
     23 CAX         17.9480   125.9720    -4.0640 cd         1 66C      -0.088600
     24 N01         17.4770   127.1270    -3.5350 na         1 66C       0.193300
     25 CZ          16.1310   127.5620    -3.4530 ca         1 66C      -0.049200
     26 CE2         15.1800   126.7100    -2.9120 ca         1 66C      -0.110000
     27 CD2         13.8550   127.1090    -2.8850 ca         1 66C      -0.111000
     28 CE1         15.7770   128.8140    -3.9310 ca         1 66C      -0.110000
     29 CD1         14.4470   129.2010    -3.8850 ca         1 66C      -0.111000
     30 CG          13.4640   128.3500    -3.3820 ca         1 66C      -0.018300
     31 CB          12.0170   128.7370    -3.4310 c3         1 66C      -0.023100
     32 CA          11.3590   128.3620    -4.7690 c3         1 66C       0.021500
     33 N            9.9750   128.8210    -4.7330 n8         1 66C      -0.859800
     34 C           11.4320   126.8280    -4.9860 c          1 66C       0.925600
     35 O           10.7030   126.1260    -4.2570 o          1 66C      -0.826800
     36 H1          20.4620   123.6340    -0.9670 hc         1 66C       0.077700
     37 H2          19.9260   125.2780    -1.2030 hc         1 66C       0.077700
     38 H3          18.3880   125.0910     0.7400 h1         1 66C       0.042700
     39 H4          18.9040   123.4340     1.0010 h1         1 66C       0.042700
     40 H5          20.0910   125.1090     2.3260 hn         1 66C       0.330300
     41 H6          21.1150   124.2910     1.3890 hn         1 66C       0.330300
     42 H10         20.7060   121.6690    -3.4240 ha         1 66C       0.134000
     43 H11         22.8960   122.1650    -4.4690 ha         1 66C       0.125000
     44 H12         23.4370   124.4780    -5.1610 ha         1 66C       0.127000
     45 H13         21.7790   126.2790    -4.8570 ha         1 66C       0.146000
     46 H14         16.2660   121.9380    -5.7240 ha         1 66C       0.119000
     47 H15         15.0090   123.1000    -7.4810 ha         1 66C       0.133000
     48 H16         15.1400   125.5840    -7.6490 ha         1 66C       0.151000
     49 H17         16.5210   126.8270    -6.0640 ha         1 66C       0.139000
     50 H18         15.4730   125.7440    -2.5180 ha         1 66C       0.142000
     51 H19         13.1070   126.4370    -2.4830 ha         1 66C       0.145000
     52 H20         16.5290   129.4710    -4.3490 ha         1 66C       0.142000
     53 H21         14.1650   130.1750    -4.2660 ha         1 66C       0.145000
     54 H22         11.9200   129.8160    -3.2830 hc         1 66C       0.041700
     55 H23         11.4650   128.2510    -2.6240 hc         1 66C       0.041700
     56 H24         11.9410   128.8420    -5.5690 h1         1 66C       0.003700
     57 H25          9.9650   129.8350    -4.7210 hn         1 66C       0.309300
     58 H26          9.5070   128.5590    -5.5920 hn         1 66C       0.309300
     59 O1          12.2320   126.4290    -5.8540 o          1 66C      -0.826800
     60 H8          16.9630   122.4180    -3.1670 h1         1 66C       0.063200
     61 H9          18.1870   121.9720    -4.3280 h1         1 66C       0.063200
@<TRIPOS>BOND
     1     1     2 2   
     2     2     3 1   
     3     2     7 1   
     4     3     4 1   
     5     3    36 1   
     6     3    37 1   
     7     4     5 1   
     8     4    38 1   
     9     4    39 1   
    10     5    40 1   
    11     5    41 1   
    12     6     7 1   
    13     6    17 1   
    14     6    60 1   
    15     6    61 1   
    16     7     8 1   
    17     8     9 ar  
    18     8    13 ar  
    19     9    10 ar  
    20     9    42 1   
    21    10    11 ar  
    22    10    43 1   
    23    11    12 ar  
    24    11    44 1   
    25    12    13 ar  
    26    12    45 1   
    27    13    14 1   
    28    14    15 1   
    29    14    23 2   
    30    15    16 2   
    31    16    24 1   
    32    17    18 ar  
    33    17    22 ar  
    34    18    19 ar  
    35    18    46 1   
    36    19    20 ar  
    37    19    47 1   
    38    20    21 ar  
    39    20    48 1   
    40    21    22 ar  
    41    21    49 1   
    42    22    23 1   
    43    23    24 1   
    44    24    25 1   
    45    25    26 ar  
    46    25    28 ar  
    47    26    27 ar  
    48    26    50 1   
    49    27    30 ar  
    50    27    51 1   
    51    28    29 ar  
    52    28    52 1   
    53    29    30 ar  
    54    29    53 1   
    55    30    31 1   
    56    31    32 1   
    57    31    54 1   
    58    31    55 1   
    59    32    33 1   
    60    32    34 1   
    61    32    56 1   
    62    33    57 1   
    63    33    58 1   
    64    34    35 1   
    65    34    59 1   
@<TRIPOS>SUBSTRUCTURE
     1 66C         1 TEMP              0 ****  ****    0 ROOT
