@<TRIPOS>MOLECULE
66C
   61    65     1     0     0
SMALL
No Charge or Current Charge


@<TRIPOS>ATOM
      1 OBE         18.3780   122.5120    -0.3590 o          1 66C      -0.592100
      2 CBD         19.2100   123.0110    -1.1110 c          1 66C       0.617100
      3 CF          20.6830   123.1100    -0.6700 c3         1 66C      -0.162400
      4 CH          20.8940   123.0100     0.8500 c3         1 66C       0.157800
      5 NBH         22.3230   123.1450     1.1900 n8         1 66C      -0.995200
      6 CAT         17.3750   123.6320    -2.6480 c3         1 66C       0.150300
      7 NAU         18.8290   123.5160    -2.3860 n          1 66C      -0.245400
      8 CAP         19.7610   124.0650    -3.3330 ca         1 66C      -0.043000
      9 CAO         20.8380   123.2610    -3.7640 ca         1 66C      -0.114000
     10 CAN         21.8940   123.8020    -4.5110 ca         1 66C      -0.114000
     11 CAS         21.9160   125.1730    -4.7920 ca         1 66C      -0.117000
     12 CAR         20.8820   125.9970    -4.3210 ca         1 66C      -0.078000
     13 CAQ         19.8030   125.4600    -3.5880 ca         1 66C      -0.082500
     14 CAY         18.7690   126.3890    -3.1240 cc         1 66C       0.211500
     15 N03         19.0160   127.5430    -2.4240 nc         1 66C      -0.367000
     16 N02         17.9150   128.2600    -2.4340 nd         1 66C      -0.192800
     17 CAV         16.9200   123.9880    -4.0660 ca         1 66C      -0.072300
     18 CAZ         16.3400   122.9850    -4.8700 ca         1 66C      -0.126000
     19 CBA         15.7030   123.3170    -6.0760 ca         1 66C      -0.082000
     20 CBB         15.6130   124.6600    -6.4730 ca         1 66C      -0.075000
     21 CBC         16.1900   125.6650    -5.6810 ca         1 66C      -0.076000
     22 CAW         16.8750   125.3350    -4.4940 ca         1 66C      -0.019000
     23 CAX         17.5400   126.3920    -3.7170 cd         1 66C      -0.074000
     24 N01         17.0370   127.5820    -3.2390 na         1 66C       0.244000
     25 CZ          15.6990   127.8910    -3.4810 ca         1 66C      -0.049200
     26 CE2         14.6690   127.1070    -2.9240 ca         1 66C      -0.092000
     27 CD2         13.3240   127.4150    -3.1880 ca         1 66C      -0.093000
     28 CE1         15.3680   128.9940    -4.2910 ca         1 66C      -0.092000
     29 CD1         14.0220   129.3010    -4.5520 ca         1 66C      -0.093000
     30 CG          12.9910   128.5120    -4.0060 ca         1 66C      -0.018300
     31 CB          11.5320   128.8470    -4.2970 c3         1 66C      -0.023100
     32 CA          11.1180   128.4990    -5.7530 c3         1 66C       0.021500
     33 N            9.7950   129.1410    -6.0870 n8         1 66C      -0.970200
     34 C           11.2370   126.9420    -6.0430 c          1 66C       0.715000
     35 O           10.7210   126.1480    -5.2640 o          1 66C      -0.721500
     36 H1          21.2340   122.3200    -1.1900 hc         1 66C       0.077700
     37 H2          21.1200   124.0280    -1.0770 hc         1 66C       0.077700
     38 H3          20.3320   123.8090     1.3540 h1         1 66C       0.042700
     39 H4          20.5280   122.0400     1.2180 h1         1 66C       0.042700
     40 H5          22.4380   123.0320     2.2050 hn         1 66C       0.385500
     41 H6          22.8380   122.3470     0.7990 hn         1 66C       0.385500
     42 H10         20.8480   122.1980    -3.5300 ha         1 66C       0.116000
     43 H11         22.7030   123.1620    -4.8550 ha         1 66C       0.107000
     44 H12         22.7380   125.6010    -5.3610 ha         1 66C       0.109000
     45 H13         20.9160   127.0640    -4.5310 ha         1 66C       0.128000
     46 H14         16.3520   121.9480    -4.5420 ha         1 66C       0.101000
     47 H15         15.2530   122.5380    -6.6880 ha         1 66C       0.115000
     48 H16         15.1020   124.9220    -7.3980 ha         1 66C       0.133000
     49 H17         16.1380   126.6990    -6.0120 ha         1 66C       0.121000
     50 H18         14.9110   126.2540    -2.2930 ha         1 66C       0.124000
     51 H19         12.5380   126.7960    -2.7590 ha         1 66C       0.127000
     52 H20         16.1550   129.6090    -4.7230 ha         1 66C       0.124000
     53 H21         13.7780   130.1530    -5.1830 ha         1 66C       0.127000
     54 H22         11.3760   129.9190    -4.1240 hc         1 66C       0.041700
     55 H23         10.8690   128.3290    -3.5940 hc         1 66C       0.041700
     56 H24         11.8470   128.9900    -6.4130 h1         1 66C       0.003700
     57 H25          9.8740   130.1590    -5.9810 hn         1 66C       0.364500
     58 H26          9.6010   129.0090    -7.0870 hn         1 66C       0.364500
     59 O1          11.7920   126.5930    -7.0780 o          1 66C      -0.721500
     60 H8          16.9660   124.3780    -1.9540 h1         1 66C       0.063200
     61 H9          16.9050   122.6770    -2.3810 h1         1 66C       0.063200
@<TRIPOS>BOND
     1     1     2 2   
     2     2     3 1   
     3     2     7 1   
     4     3     4 1   
     5     3    36 1   
     6     3    37 1   
     7     4     5 1   
     8     4    38 1   
     9     4    39 1   
    10     5    40 1   
    11     5    41 1   
    12     6     7 1   
    13     6    17 1   
    14     6    60 1   
    15     6    61 1   
    16     7     8 1   
    17     8     9 ar  
    18     8    13 ar  
    19     9    10 ar  
    20     9    42 1   
    21    10    11 ar  
    22    10    43 1   
    23    11    12 ar  
    24    11    44 1   
    25    12    13 ar  
    26    12    45 1   
    27    13    14 1   
    28    14    15 1   
    29    14    23 2   
    30    15    16 2   
    31    16    24 1   
    32    17    18 ar  
    33    17    22 ar  
    34    18    19 ar  
    35    18    46 1   
    36    19    20 ar  
    37    19    47 1   
    38    20    21 ar  
    39    20    48 1   
    40    21    22 ar  
    41    21    49 1   
    42    22    23 1   
    43    23    24 1   
    44    24    25 1   
    45    25    26 ar  
    46    25    28 ar  
    47    26    27 ar  
    48    26    50 1   
    49    27    30 ar  
    50    27    51 1   
    51    28    29 ar  
    52    28    52 1   
    53    29    30 ar  
    54    29    53 1   
    55    30    31 1   
    56    31    32 1   
    57    31    54 1   
    58    31    55 1   
    59    32    33 1   
    60    32    34 1   
    61    32    56 1   
    62    33    57 1   
    63    33    58 1   
    64    34    35 1   
    65    34    59 1   
@<TRIPOS>SUBSTRUCTURE
     1 66C         1 TEMP              0 ****  ****    0 ROOT
