@<TRIPOS>MOLECULE
66D
   27    26     1     0     0
SMALL
bcc


@<TRIPOS>ATOM
      1 N           -0.6890    -1.5650    -0.4840 n8         1 66D      -0.892800
      2 CA          -0.8570    -0.2830     0.1980 c3         1 66D       0.028200
      3 CB           0.2130     0.7210    -0.2600 c3         1 66D      -0.056400
      4 CC           1.6760     0.5200     0.1560 c3         1 66D      -0.053700
      5 CD2          2.4640     1.7710    -0.2350 c3         1 66D      -0.086100
      6 CD           2.3150    -0.7430    -0.4260 c3         1 66D      -0.079400
      7 CE           3.7430    -0.9980     0.0420 c3         1 66D      -0.083100
      8 CB2         -0.7630    -0.5330     1.7060 c3         1 66D      -0.051100
      9 C           -2.2740     0.3380    -0.0570 c          1 66D       0.905600
     10 O           -2.4570     1.5140     0.3190 o          1 66D      -0.836800
     11 OXT         -3.1340    -0.4030    -0.5760 o          1 66D      -0.836800
     12 H1          -1.5930    -2.0270    -0.4780 hn         1 66D       0.329800
     13 H2          -0.5070    -1.3910    -1.4660 hn         1 66D       0.329800
     14 H4           0.1730     0.7990    -1.3570 hc         1 66D       0.042700
     15 H5          -0.0970     1.6990     0.1120 hc         1 66D       0.042700
     16 H6           1.7170     0.4380     1.2490 hc         1 66D       0.038700
     17 H7           2.0230     2.6680     0.2030 hc         1 66D       0.018700
     18 H8           3.5020     1.7240     0.0950 hc         1 66D       0.018700
     19 H9           2.4700     1.9030    -1.3210 hc         1 66D       0.018700
     20 H10          1.6930    -1.6000    -0.1660 hc         1 66D       0.051200
     21 H11          2.2930    -0.6790    -1.5210 hc         1 66D       0.051200
     22 H12          4.4420    -0.2390    -0.3120 hc         1 66D       0.016033
     23 H13          3.8040    -1.0160     1.1330 hc         1 66D       0.016033
     24 H14          4.1060    -1.9610    -0.3200 hc         1 66D       0.016033
     25 H15         -0.8490     0.3950     2.2720 hc         1 66D       0.017367
     26 H16         -1.5620    -1.2000     2.0400 hc         1 66D       0.017367
     27 H17          0.1840    -1.0060     1.9680 hc         1 66D       0.017367
@<TRIPOS>BOND
     1     1     2 1   
     2     1    12 1   
     3     1    13 1   
     4     2     3 1   
     5     2     8 1   
     6     2     9 1   
     7     3     4 1   
     8     3    14 1   
     9     3    15 1   
    10     4     5 1   
    11     4     6 1   
    12     4    16 1   
    13     5    17 1   
    14     5    18 1   
    15     5    19 1   
    16     6     7 1   
    17     6    20 1   
    18     6    21 1   
    19     7    22 1   
    20     7    23 1   
    21     7    24 1   
    22     8    25 1   
    23     8    26 1   
    24     8    27 1   
    25     9    10 1   
    26     9    11 1   
@<TRIPOS>SUBSTRUCTURE
     1 66D         1 TEMP              0 ****  ****    0 ROOT
