@<TRIPOS>MOLECULE
66E
   24    23     1     0     0
SMALL
No Charge or Current Charge


@<TRIPOS>ATOM
      1 C1         -19.2150    33.3790    18.5940 c3         1 66E       0.177800
      2 N          -19.4390    34.8460    18.6070 n7         1 66E      -0.877400
      3 CA         -20.8650    35.3670    18.5940 c3         1 66E       0.045500
      4 CB         -21.4460    35.5530    17.1470 c3         1 66E      -0.036700
      5 CG1        -22.8050    36.3000    17.1680 c3         1 66E      -0.075600
      6 CG2        -20.4690    36.2850    16.1900 c3         1 66E      -0.075600
      7 C          -21.8580    34.6240    19.5900 c          1 66E       0.693000
      8 O          -22.4920    33.6500    19.2000 o          1 66E      -0.734500
      9 C2         -19.5270    32.7150    17.2370 c3         1 66E      -0.080100
     10 H1         -19.7890    32.8810    19.3870 h1         1 66E       0.020200
     11 H2         -18.1540    33.1900    18.8080 h1         1 66E       0.020200
     12 H3         -19.0170    35.1840    19.4820 hn         1 66E       0.404000
     13 H5         -20.8070    36.3910    18.9860 h1         1 66E       0.028700
     14 H6         -21.6430    34.5660    16.7170 hc         1 66E       0.055700
     15 H7         -23.5540    35.7550    17.7530 hc         1 66E       0.017200
     16 H8         -22.6920    37.3010    17.6030 hc         1 66E       0.017200
     17 H9         -23.2000    36.4130    16.1510 hc         1 66E       0.017200
     18 H10        -19.5450    35.7130    16.0440 hc         1 66E       0.017200
     19 H11        -20.9260    36.4230    15.2020 hc         1 66E       0.017200
     20 H12        -20.2040    37.2730    16.5840 hc         1 66E       0.017200
     21 H14        -19.1310    31.6930    17.2250 hc         1 66E       0.022033
     22 H15        -20.6060    32.6470    17.0650 hc         1 66E       0.022033
     23 H16        -19.0640    33.2670    16.4100 hc         1 66E       0.022033
     24 O1         -21.9440    35.0510    20.7350 o          1 66E      -0.734500
@<TRIPOS>BOND
     1     1     2 1   
     2     1     9 1   
     3     1    10 1   
     4     1    11 1   
     5     2     3 1   
     6     2    12 1   
     7     3     4 1   
     8     3     7 1   
     9     3    13 1   
    10     4     5 1   
    11     4     6 1   
    12     4    14 1   
    13     5    15 1   
    14     5    16 1   
    15     5    17 1   
    16     6    18 1   
    17     6    19 1   
    18     6    20 1   
    19     7     8 1   
    20     7    24 1   
    21     9    21 1   
    22     9    22 1   
    23     9    23 1   
@<TRIPOS>SUBSTRUCTURE
     1 66E         1 TEMP              0 ****  ****    0 ROOT
