@<TRIPOS>MOLECULE
66E
   24    23     1     0     0
SMALL
bcc


@<TRIPOS>ATOM
      1 C1         -19.3190    33.4320    18.5830 c3         1 66E       0.177800
      2 N          -19.5290    34.8720    18.6160 n7         1 66E      -0.822200
      3 CA         -20.9070    35.3810    18.5810 c3         1 66E       0.045500
      4 CB         -21.4840    35.5020    17.1670 c3         1 66E      -0.036700
      5 CG1        -22.7760    36.3160    17.1990 c3         1 66E      -0.075600
      6 CG2        -20.4990    36.1490    16.1980 c3         1 66E      -0.075600
      7 C          -21.8090    34.6080    19.5860 c          1 66E       0.903600
      8 O          -22.6070    33.7580    19.1390 o          1 66E      -0.839800
      9 C2         -19.4410    32.8100    17.2000 c3         1 66E      -0.080100
     10 H1         -19.9700    32.8780    19.2750 h1         1 66E       0.020200
     11 H2         -18.3010    33.2630    18.9420 h1         1 66E       0.020200
     12 H3         -19.1100    35.2150    19.4690 hn         1 66E       0.348800
     13 H5         -20.8220    36.4100    18.9560 h1         1 66E       0.028700
     14 H6         -21.7330    34.5070    16.7910 hc         1 66E       0.055700
     15 H7         -23.5280    35.8590    17.8420 hc         1 66E       0.017200
     16 H8         -22.5900    37.3290    17.5670 hc         1 66E       0.017200
     17 H9         -23.2080    36.4070    16.2000 hc         1 66E       0.017200
     18 H10        -19.5970    35.5540    16.0740 hc         1 66E       0.017200
     19 H11        -20.9540    36.2790    15.2140 hc         1 66E       0.017200
     20 H12        -20.1950    37.1390    16.5510 hc         1 66E       0.017200
     21 H14        -19.1500    31.7590    17.2380 hc         1 66E       0.022033
     22 H15        -20.4600    32.8510    16.8180 hc         1 66E       0.022033
     23 H16        -18.7910    33.3130    16.4830 hc         1 66E       0.022033
     24 O1         -21.6130    34.8750    20.7910 o          1 66E      -0.839800
@<TRIPOS>BOND
     1     1     2 1   
     2     1     9 1   
     3     1    10 1   
     4     1    11 1   
     5     2     3 1   
     6     2    12 1   
     7     3     4 1   
     8     3     7 1   
     9     3    13 1   
    10     4     5 1   
    11     4     6 1   
    12     4    14 1   
    13     5    15 1   
    14     5    16 1   
    15     5    17 1   
    16     6    18 1   
    17     6    19 1   
    18     6    20 1   
    19     7     8 1   
    20     7    24 1   
    21     9    21 1   
    22     9    22 1   
    23     9    23 1   
@<TRIPOS>SUBSTRUCTURE
     1 66E         1 TEMP              0 ****  ****    0 ROOT
