@<TRIPOS>MOLECULE
66F
   45    47     1     0     0
SMALL
No Charge or Current Charge


@<TRIPOS>ATOM
      1 C1          22.7080    10.4310    20.8380 ca         1 66F      -0.112300
      2 C2          21.4810     9.8560    21.6190 c6         1 66F       0.262500
      3 C3          20.7750     8.7980    20.7260 c3         1 66F      -0.064100
      4 C4          20.4630    10.9090    22.0540 c6         1 66F      -0.362400
      5 S5          21.1980    12.0490    23.2080 s6         1 66F       1.239100
      6 N6          22.3090    11.0670    24.0410 nh         1 66F      -0.768500
      7 C7          22.1740     9.7350    23.9080 c2         1 66F       0.863100
      8 N8          21.8560     9.1340    22.8400 n2         1 66F      -0.739900
      9 N9          22.5500     9.0280    24.9670 nv         1 66F      -1.034200
     10 C10         23.2230    11.7550    24.9760 c3         1 66F       0.208100
     11 O11         20.1860    12.4670    24.1830 o          1 66F      -0.529000
     12 O12         21.9790    13.0520    22.4770 o          1 66F      -0.529000
     13 C13         24.0390    10.1280    21.2310 ca         1 66F      -0.116000
     14 C14         25.1550    10.6400    20.5400 ca         1 66F      -0.033000
     15 C15         24.9480    11.4650    19.4170 ca         1 66F      -0.098000
     16 C16         23.6420    11.7580    18.9960 ca         1 66F      -0.114000
     17 C17         22.5360    11.2470    19.6910 ca         1 66F       0.157000
     18 F18         21.3060    11.5480    19.2190 f          1 66F      -0.190000
     19 N19         26.4450    10.2840    21.0270 ns         1 66F      -0.125000
     20 C20         31.2220     9.6440    21.9150 ca         1 66F      -0.119000
     21 C21         30.8590     8.8470    23.0090 ca         1 66F       0.135000
     22 C22         29.4920     8.6450    23.2840 ca         1 66F       0.306900
     23 N23         28.4970     9.1890    22.5350 nb         1 66F      -0.659000
     24 C24         28.8400     9.9710    21.4620 ca         1 66F       0.268500
     25 C25         30.1970    10.2120    21.1340 ca         1 66F      -0.073000
     26 C26         27.7350    10.5930    20.6060 c          1 66F       0.515600
     27 O27         27.9780    11.3040    19.6320 o          1 66F      -0.586100
     28 H1          19.9410     8.3180    21.2530 hc         1 66F       0.049033
     29 H2          20.3650     9.2420    19.8130 hc         1 66F       0.049033
     30 H3          21.4730     8.0090    20.4230 hc         1 66F       0.049033
     31 H4          20.0600    11.5100    21.2350 h1         1 66F       0.123200
     32 H5          19.6350    10.4450    22.6000 h1         1 66F       0.123200
     33 H6          22.6750     8.0660    24.6900 hn         1 66F       0.482500
     34 H7          23.3480     9.4310    25.4270 hn         1 66F       0.482500
     35 H8          23.1880    12.8450    24.8510 h1         1 66F       0.054367
     36 H9          22.9540    11.5310    26.0170 h1         1 66F       0.054367
     37 H10         24.2590    11.4340    24.8020 h1         1 66F       0.054367
     38 H11         24.2270     9.4840    22.0850 ha         1 66F       0.123000
     39 H12         25.7760    11.8810    18.8520 ha         1 66F       0.155000
     40 H13         23.4830    12.3850    18.1220 ha         1 66F       0.137000
     41 H14         26.4260     9.6860    21.8450 hn         1 66F       0.179000
     42 H15         32.2690     9.8180    21.6780 ha         1 66F       0.147000
     43 H16         29.1830     8.0300    24.1280 h4         1 66F       0.041100
     44 H17         30.4500    10.8350    20.2790 ha         1 66F       0.157000
     45 F28         31.8110     8.2820    23.7870 f          1 66F      -0.164000
@<TRIPOS>BOND
     1     1     2 1   
     2     1    13 ar  
     3     1    17 ar  
     4     2     3 1   
     5     2     4 1   
     6     2     8 1   
     7     3    28 1   
     8     3    29 1   
     9     3    30 1   
    10     4     5 1   
    11     4    31 1   
    12     4    32 1   
    13     5     6 1   
    14     5    11 2   
    15     5    12 2   
    16     6     7 1   
    17     6    10 1   
    18     7     8 2   
    19     7     9 1   
    20     9    33 1   
    21     9    34 1   
    22    10    35 1   
    23    10    36 1   
    24    10    37 1   
    25    13    14 ar  
    26    13    38 1   
    27    14    15 ar  
    28    14    19 1   
    29    15    16 ar  
    30    15    39 1   
    31    16    17 ar  
    32    16    40 1   
    33    17    18 1   
    34    19    26 1   
    35    19    41 1   
    36    20    21 ar  
    37    20    25 ar  
    38    20    42 1   
    39    21    22 ar  
    40    21    45 1   
    41    22    23 ar  
    42    22    43 1   
    43    23    24 ar  
    44    24    25 ar  
    45    24    26 1   
    46    25    44 1   
    47    26    27 2   
@<TRIPOS>SUBSTRUCTURE
     1 66F         1 TEMP              0 ****  ****    0 ROOT
