@<TRIPOS>MOLECULE
66F
   45    47     1     0     0
SMALL
abcg2


@<TRIPOS>ATOM
      1 C1          22.8320    10.4130    20.8520 ca         1 66F      -0.112300
      2 C2          21.6310     9.8470    21.6290 c6         1 66F       0.262500
      3 C3          20.9060     8.8220    20.7380 c3         1 66F      -0.064100
      4 C4          20.6080    10.9390    22.0000 c6         1 66F      -0.362400
      5 S5          21.2730    12.1340    23.1180 s6         1 66F       1.239100
      6 N6          22.1420    11.1480    24.1480 nh         1 66F      -0.768500
      7 C7          22.2810     9.7700    23.9240 c2         1 66F       0.863100
      8 N8          22.0570     9.1440    22.8250 n2         1 66F      -0.739900
      9 N9          22.6650     9.0590    25.0280 nv         1 66F      -1.034200
     10 C10         22.5640    11.7870    25.4030 c3         1 66F       0.208100
     11 O11         20.2080    12.7560    23.8740 o          1 66F      -0.529000
     12 O12         22.1880    13.0300    22.4490 o          1 66F      -0.529000
     13 C13         24.1340    10.1540    21.2570 ca         1 66F      -0.116000
     14 C14         25.2440    10.6270    20.5490 ca         1 66F      -0.033000
     15 C15         25.0520    11.3970    19.4010 ca         1 66F      -0.098000
     16 C16         23.7560    11.6630    18.9780 ca         1 66F      -0.114000
     17 C17         22.6850    11.1680    19.6910 ca         1 66F       0.157000
     18 F18         21.4360    11.4540    19.2240 f          1 66F      -0.190000
     19 N19         26.5080    10.2780    21.0480 ns         1 66F      -0.125000
     20 C20         31.1990     9.5870    21.6790 ca         1 66F      -0.119000
     21 C21         30.8410     8.7990    22.7540 ca         1 66F       0.135000
     22 C22         29.5080     8.6170    23.1000 ca         1 66F       0.306900
     23 N23         28.5360     9.1910    22.4010 nb         1 66F      -0.659000
     24 C24         28.8580     9.9530    21.3500 ca         1 66F       0.268500
     25 C25         30.1740    10.1790    20.9580 ca         1 66F      -0.073000
     26 C26         27.7350    10.5710    20.5600 c          1 66F       0.515600
     27 O27         27.9610    11.2620    19.5690 o          1 66F      -0.586100
     28 H1          20.0550     8.4080    21.2800 hc         1 66F       0.049033
     29 H2          20.5550     9.2740    19.8130 hc         1 66F       0.049033
     30 H3          21.5970     8.0130    20.5020 hc         1 66F       0.049033
     31 H4          20.2540    11.5160    21.1490 h1         1 66F       0.123200
     32 H5          19.7620    10.4840    22.5150 h1         1 66F       0.123200
     33 H6          22.9990     8.1300    24.8240 hn         1 66F       0.482500
     34 H7          23.1440     9.5210    25.7820 hn         1 66F       0.482500
     35 H8          22.4550    12.8640    25.3030 h1         1 66F       0.054367
     36 H9          21.9560    11.4500    26.2420 h1         1 66F       0.054367
     37 H10         23.6170    11.5760    25.5850 h1         1 66F       0.054367
     38 H11         24.2920     9.5630    22.1480 ha         1 66F       0.123000
     39 H12         25.8960    11.7750    18.8490 ha         1 66F       0.155000
     40 H13         23.5740    12.2550    18.0910 ha         1 66F       0.137000
     41 H14         26.5240     9.6900    21.8730 hn         1 66F       0.179000
     42 H15         32.2400     9.7260    21.4200 ha         1 66F       0.147000
     43 H16         29.2400     7.9990    23.9490 h4         1 66F       0.041100
     44 H17         30.3810    10.8050    20.1030 ha         1 66F       0.157000
     45 F28         31.7920     8.1890    23.4850 f          1 66F      -0.164000
@<TRIPOS>BOND
     1     1     2 1   
     2     1    13 ar  
     3     1    17 ar  
     4     2     3 1   
     5     2     4 1   
     6     2     8 1   
     7     3    28 1   
     8     3    29 1   
     9     3    30 1   
    10     4     5 1   
    11     4    31 1   
    12     4    32 1   
    13     5     6 1   
    14     5    11 2   
    15     5    12 2   
    16     6     7 1   
    17     6    10 1   
    18     7     8 2   
    19     7     9 1   
    20     9    33 1   
    21     9    34 1   
    22    10    35 1   
    23    10    36 1   
    24    10    37 1   
    25    13    14 ar  
    26    13    38 1   
    27    14    15 ar  
    28    14    19 1   
    29    15    16 ar  
    30    15    39 1   
    31    16    17 ar  
    32    16    40 1   
    33    17    18 1   
    34    19    26 1   
    35    19    41 1   
    36    20    21 ar  
    37    20    25 ar  
    38    20    42 1   
    39    21    22 ar  
    40    21    45 1   
    41    22    23 ar  
    42    22    43 1   
    43    23    24 ar  
    44    24    25 ar  
    45    24    26 1   
    46    25    44 1   
    47    26    27 2   
@<TRIPOS>SUBSTRUCTURE
     1 66F         1 TEMP              0 ****  ****    0 ROOT
