@<TRIPOS>MOLECULE
66G
   24    25     1     0     0
SMALL
bcc


@<TRIPOS>ATOM
      1 C           -0.7690    -0.3840     0.3400 cc         1 66G       0.576600
      2 N           -2.5800     1.2290     0.4230 n7         1 66G      -0.787200
      3 C1           2.5430     0.3200    -0.1150 c2         1 66G       0.320700
      4 N1           0.1460     0.4740     0.1320 nd         1 66G      -0.554300
      5 CA          -2.2330    -0.1730     0.4770 c5         1 66G       0.150200
      6 S10          2.5800     2.0550    -0.3000 sh         1 66G      -0.195400
      7 O21         -0.3380    -1.6720     0.4490 os         1 66G      -0.445700
      8 O26          1.6830    -2.6650     0.3390 o          1 66G      -0.532500
      9 C78         -4.0190     1.2460     0.2120 c5         1 66G       0.151800
     10 C79         -4.2200     0.1900    -0.8760 c5         1 66G      -0.081400
     11 C80         -3.0450    -0.7900    -0.6840 c5         1 66G      -0.070400
     12 C83          1.0320    -1.6570     0.2890 c          1 66G       0.733800
     13 CA1          1.3290    -0.2590     0.0850 cd         1 66G      -0.136600
     14 OXT          3.6240    -0.4240    -0.1600 oh         1 66G      -0.448100
     15 HA          -2.5510    -0.6560     1.4160 h1         1 66G       0.048700
     16 HS10         3.8940     2.1710    -0.5270 hs         1 66G       0.162800
     17 H78         -4.5810     0.9640     1.1140 h1         1 66G       0.038200
     18 H78A        -4.3570     2.2390    -0.0890 h1         1 66G       0.038200
     19 H79         -5.1890    -0.3000    -0.7870 hc         1 66G       0.050700
     20 H79A        -4.1760     0.6450    -1.8660 hc         1 66G       0.050700
     21 H80         -2.4430    -0.8550    -1.5910 hc         1 66G       0.058200
     22 H80A        -3.3710    -1.7980    -0.4340 hc         1 66G       0.058200
     23 HXT          4.4380     0.0830    -0.2740 ho         1 66G       0.442000
     24 HN          -2.3150     1.7120     1.2720 hn         1 66G       0.369800
@<TRIPOS>BOND
     1     1     4 2   
     2     1     5 1   
     3     1     7 1   
     4     2     5 1   
     5     2     9 1   
     6     2    24 1   
     7     3     6 1   
     8     3    13 2   
     9     3    14 1   
    10     4    13 1   
    11     5    11 1   
    12     5    15 1   
    13     6    16 1   
    14     7    12 1   
    15     8    12 2   
    16     9    10 1   
    17     9    17 1   
    18     9    18 1   
    19    10    11 1   
    20    10    19 1   
    21    10    20 1   
    22    11    21 1   
    23    11    22 1   
    24    12    13 1   
    25    14    23 1   
@<TRIPOS>SUBSTRUCTURE
     1 66G         1 TEMP              0 ****  ****    0 ROOT
