@<TRIPOS>MOLECULE
66G
   24    25     1     0     0
SMALL
No Charge or Current Charge


@<TRIPOS>ATOM
      1 C           -0.6810     0.0480    -0.0730 cc         1 66G       0.576600
      2 N           -2.8530     1.2280    -0.8110 n7         1 66G      -0.842400
      3 C1           2.7370    -0.0960     0.4130 c2         1 66G       0.320700
      4 N1           0.3540     0.3200     0.7420 nd         1 66G      -0.554300
      5 CA          -2.1730     0.3380     0.1800 c5         1 66G       0.150200
      6 S10          3.2140     0.5900     1.9950 sh         1 66G      -0.195400
      7 O21         -0.3050    -0.5490    -1.2520 os         1 66G      -0.445700
      8 O26          1.6740    -1.2060    -2.1880 o          1 66G      -0.457000
      9 C78         -4.3000     1.0930    -0.5160 c5         1 66G       0.151800
     10 C79         -4.4740    -0.3250     0.1110 c5         1 66G      -0.081400
     11 C80         -3.0440    -0.9360     0.0570 c5         1 66G      -0.070400
     12 C83          1.0250    -0.7050    -1.2810 c          1 66G       0.658300
     13 CA1          1.4330    -0.1460     0.0020 cd         1 66G      -0.136600
     14 OXT          3.7830    -0.5480    -0.2970 oh         1 66G      -0.487100
     15 HA          -2.2750     0.7610     1.1900 h1         1 66G       0.048700
     16 HS10         4.2310     1.3540     1.5380 hs         1 66G       0.162800
     17 H78         -4.6190     1.8640     0.2000 h1         1 66G       0.038200
     18 H78A        -4.8990     1.2190    -1.4290 h1         1 66G       0.038200
     19 H79         -4.8320    -0.2470     1.1440 hc         1 66G       0.050700
     20 H79A        -5.2010    -0.9340    -0.4370 hc         1 66G       0.050700
     21 H80         -2.8700    -1.4550    -0.8930 hc         1 66G       0.058200
     22 H80A        -2.8610    -1.6540     0.8650 hc         1 66G       0.058200
     23 HXT          4.5650    -0.5250     0.2910 ho         1 66G       0.481000
     24 HN          -2.5490     2.2060    -0.7060 hn         1 66G       0.425000
@<TRIPOS>BOND
     1     1     4 2   
     2     1     5 1   
     3     1     7 1   
     4     2     5 1   
     5     2     9 1   
     6     2    24 1   
     7     3     6 1   
     8     3    13 2   
     9     3    14 1   
    10     4    13 1   
    11     5    11 1   
    12     5    15 1   
    13     6    16 1   
    14     7    12 1   
    15     8    12 2   
    16     9    10 1   
    17     9    17 1   
    18     9    18 1   
    19    10    11 1   
    20    10    19 1   
    21    10    20 1   
    22    11    21 1   
    23    11    22 1   
    24    12    13 1   
    25    14    23 1   
@<TRIPOS>SUBSTRUCTURE
     1 66G         1 TEMP              0 ****  ****    0 ROOT
