@<TRIPOS>MOLECULE
66H
   46    49     1     0     0
SMALL
No Charge or Current Charge


@<TRIPOS>ATOM
      1 C1          21.6430    10.7110    22.1690 c5         1 66H       0.255800
      2 C2          21.4290    12.0240    22.9840 c          1 66H       0.567000
      3 N3          21.5440    11.5930    24.2920 n          1 66H      -0.394300
      4 C4          21.7670    10.2340    24.4040 c2         1 66H       0.674800
      5 N5          21.9520     9.6630    23.1860 nu         1 66H      -0.902400
      6 C7          21.3920    12.5280    25.4270 c3         1 66H       0.092300
      7 C9          22.8130    10.9570    21.1880 ca         1 66H      -0.066300
      8 C10         20.3690    10.2580    21.4240 ca         1 66H      -0.108300
      9 C11         20.4670     9.2860    20.4020 ca         1 66H      -0.088000
     10 C12         19.3250     8.8430    19.7120 ca         1 66H      -0.111000
     11 C13         18.0620     9.3570    20.0400 ca         1 66H      -0.097000
     12 C14         17.9430    10.3090    21.0630 ca         1 66H      -0.111000
     13 C15         19.0830    10.7540    21.7540 ca         1 66H      -0.088000
     14 C16         24.1180    10.4590    21.4230 ca         1 66H      -0.139000
     15 C17         25.1730    10.7020    20.5230 ca         1 66H      -0.027000
     16 C18         24.9230    11.4640    19.3630 ca         1 66H      -0.121000
     17 C19         23.6390    11.9730    19.1190 ca         1 66H      -0.089000
     18 C20         22.5950    11.7240    20.0240 ca         1 66H      -0.103000
     19 N6          21.6040     9.5180    25.4290 n2         1 66H      -0.860100
     20 O8          21.2050    13.1740    22.6190 o          1 66H      -0.502000
     21 N21         26.4470    10.1560    20.8460 ns         1 66H      -0.137000
     22 C22         27.6790    10.2000    20.2040 c          1 66H       0.544600
     23 O23         27.8900    10.7790    19.1420 o          1 66H      -0.578100
     24 C24         28.7280     9.4590    20.9540 cc         1 66H       0.050500
     25 O25         28.5060     8.8020    22.1510 os         1 66H      -0.261000
     26 C26         29.7090     8.2440    22.5250 cc         1 66H       0.157900
     27 C27         30.6610     8.5430    21.5880 cd         1 66H      -0.197000
     28 C28         30.0400     9.3170    20.5860 cd         1 66H      -0.090000
     29 H1          21.9960    12.1900    26.2780 h1         1 66H       0.053367
     30 H2          21.7290    13.5320    25.1410 h1         1 66H       0.053367
     31 H3          20.3380    12.5750    25.7270 h1         1 66H       0.053367
     32 H4          21.4360     8.8690    20.1380 ha         1 66H       0.121500
     33 H5          19.4220     8.0990    18.9250 ha         1 66H       0.118000
     34 H6          17.1780     9.0140    19.5070 ha         1 66H       0.116000
     35 H7          16.9630    10.7020    21.3250 ha         1 66H       0.118000
     36 H8          18.9490    11.4820    22.5500 ha         1 66H       0.121500
     37 H9          24.3240     9.8760    22.3170 ha         1 66H       0.128000
     38 H10         25.7060    11.6760    18.6410 ha         1 66H       0.151000
     39 H11         23.4500    12.5640    18.2250 ha         1 66H       0.120000
     40 H12         21.6090    12.1330    19.8170 ha         1 66H       0.130000
     41 H13         21.3720    10.1390    26.2130 hn         1 66H       0.399400
     42 H15         26.4600     9.6320    21.7120 hn         1 66H       0.166000
     43 H16         29.7460     7.6800    23.4480 h4         1 66H       0.057100
     44 H17         31.7020     8.2360    21.6180 ha         1 66H       0.149000
     45 H18         30.5040     9.7250    19.6920 ha         1 66H       0.160000
     46 H19         21.5170     8.7500    23.1150 hn         1 66H       0.513000
@<TRIPOS>BOND
     1     1     2 1   
     2     1     5 1   
     3     1     7 1   
     4     1     8 1   
     5     2     3 1   
     6     2    20 2   
     7     3     4 1   
     8     3     6 1   
     9     4     5 1   
    10     4    19 2   
    11     5    46 1   
    12     6    29 1   
    13     6    30 1   
    14     6    31 1   
    15     7    14 ar  
    16     7    18 ar  
    17     8     9 ar  
    18     8    13 ar  
    19     9    10 ar  
    20     9    32 1   
    21    10    11 ar  
    22    10    33 1   
    23    11    12 ar  
    24    11    34 1   
    25    12    13 ar  
    26    12    35 1   
    27    13    36 1   
    28    14    15 ar  
    29    14    37 1   
    30    15    16 ar  
    31    15    21 1   
    32    16    17 ar  
    33    16    38 1   
    34    17    18 ar  
    35    17    39 1   
    36    18    40 1   
    37    19    41 1   
    38    21    22 1   
    39    21    42 1   
    40    22    23 2   
    41    22    24 1   
    42    24    25 1   
    43    24    28 2   
    44    25    26 1   
    45    26    27 2   
    46    26    43 1   
    47    27    28 1   
    48    27    44 1   
    49    28    45 1   
@<TRIPOS>SUBSTRUCTURE
     1 66H         1 TEMP              0 ****  ****    0 ROOT
