@<TRIPOS>MOLECULE
66H
   46    49     1     0     0
SMALL
abcg2


@<TRIPOS>ATOM
      1 C1          21.6490    10.6920    22.0810 c5         1 66H       0.255800
      2 C2          21.4520    11.9690    22.9320 c          1 66H       0.567000
      3 N3          21.5580    11.5970    24.2400 n          1 66H      -0.394300
      4 C4          21.7770    10.2170    24.3820 c2         1 66H       0.674800
      5 N5          21.9670     9.7190    23.1220 nu         1 66H      -0.902400
      6 C7          21.4230    12.5080    25.3600 c3         1 66H       0.092300
      7 C9          22.8100    10.9340    21.1190 ca         1 66H      -0.066300
      8 C10         20.3630    10.2850    21.3590 ca         1 66H      -0.108300
      9 C11         20.4320     9.3190    20.3550 ca         1 66H      -0.088000
     10 C12         19.2760     8.8530    19.7420 ca         1 66H      -0.111000
     11 C13         18.0340     9.3530    20.1230 ca         1 66H      -0.097000
     12 C14         17.9580    10.3160    21.1230 ca         1 66H      -0.111000
     13 C15         19.1170    10.7770    21.7400 ca         1 66H      -0.088000
     14 C16         24.0710    10.4320    21.3960 ca         1 66H      -0.139000
     15 C17         25.1510    10.6870    20.5420 ca         1 66H      -0.027000
     16 C18         24.9560    11.4650    19.3990 ca         1 66H      -0.121000
     17 C19         23.6860    11.9690    19.1340 ca         1 66H      -0.089000
     18 C20         22.6150    11.7110    19.9760 ca         1 66H      -0.103000
     19 N6          21.8140     9.5330    25.4570 n2         1 66H      -0.860100
     20 O8          21.2490    13.0910    22.5160 o          1 66H      -0.502000
     21 N21         26.3820    10.1190    20.9050 ns         1 66H      -0.137000
     22 C22         27.5970    10.2390    20.3020 c          1 66H       0.544600
     23 O23         27.8190    10.8990    19.2880 o          1 66H      -0.578100
     24 C24         28.6800     9.5020    20.9640 cc         1 66H       0.050500
     25 O25         28.4020     8.7680    22.0890 os         1 66H      -0.261000
     26 C26         29.5700     8.2040    22.4980 cc         1 66H       0.157900
     27 C27         30.5820     8.5580    21.6620 cd         1 66H      -0.197000
     28 C28         30.0060     9.4000    20.6660 cd         1 66H      -0.090000
     29 H1          22.3040    12.4480    26.0000 h1         1 66H       0.053367
     30 H2          21.3310    13.5150    24.9610 h1         1 66H       0.053367
     31 H3          20.5330    12.2680    25.9440 h1         1 66H       0.053367
     32 H4          21.3950     8.9310    20.0480 ha         1 66H       0.121500
     33 H5          19.3450     8.1030    18.9650 ha         1 66H       0.118000
     34 H6          17.1320     8.9950    19.6430 ha         1 66H       0.116000
     35 H7          16.9970    10.7120    21.4260 ha         1 66H       0.118000
     36 H8          19.0350    11.5260    22.5170 ha         1 66H       0.121500
     37 H9          24.2240     9.8340    22.2850 ha         1 66H       0.128000
     38 H10         25.7790    11.6660    18.7350 ha         1 66H       0.151000
     39 H11         23.5370    12.5720    18.2470 ha         1 66H       0.120000
     40 H12         21.6350    12.1040    19.7460 ha         1 66H       0.130000
     41 H13         21.6570    10.1120    26.2770 hn         1 66H       0.399400
     42 H15         26.3600     9.5470    21.7380 hn         1 66H       0.166000
     43 H16         29.5150     7.5900    23.3800 h4         1 66H       0.057100
     44 H17         31.6130     8.2570    21.7460 ha         1 66H       0.149000
     45 H18         30.5060     9.8720    19.8380 ha         1 66H       0.160000
     46 H19         21.8130     8.7360    22.9630 hn         1 66H       0.513000
@<TRIPOS>BOND
     1     1     2 1   
     2     1     5 1   
     3     1     7 1   
     4     1     8 1   
     5     2     3 1   
     6     2    20 2   
     7     3     4 1   
     8     3     6 1   
     9     4     5 1   
    10     4    19 2   
    11     5    46 1   
    12     6    29 1   
    13     6    30 1   
    14     6    31 1   
    15     7    14 ar  
    16     7    18 ar  
    17     8     9 ar  
    18     8    13 ar  
    19     9    10 ar  
    20     9    32 1   
    21    10    11 ar  
    22    10    33 1   
    23    11    12 ar  
    24    11    34 1   
    25    12    13 ar  
    26    12    35 1   
    27    13    36 1   
    28    14    15 ar  
    29    14    37 1   
    30    15    16 ar  
    31    15    21 1   
    32    16    17 ar  
    33    16    38 1   
    34    17    18 ar  
    35    17    39 1   
    36    18    40 1   
    37    19    41 1   
    38    21    22 1   
    39    21    42 1   
    40    22    23 2   
    41    22    24 1   
    42    24    25 1   
    43    24    28 2   
    44    25    26 1   
    45    26    27 2   
    46    26    43 1   
    47    27    28 1   
    48    27    44 1   
    49    28    45 1   
@<TRIPOS>SUBSTRUCTURE
     1 66H         1 TEMP              0 ****  ****    0 ROOT
