@<TRIPOS>MOLECULE
66I
   62    65     1     0     0
SMALL
abcg2


@<TRIPOS>ATOM
      1 C24         65.1400    14.5960    43.2170 c3         1 66I       0.094500
      2 C26         66.7840    14.3290    41.2970 ca         1 66I      -0.108300
      3 C27         66.7900    15.5390    40.6020 ca         1 66I      -0.061000
      4 C28         67.9500    16.0320    40.0180 ca         1 66I      -0.167500
      5 C29         69.1380    15.3100    40.1210 ca         1 66I       0.135100
      6 C25         65.5200    13.8200    41.9370 c3         1 66I      -0.014100
      7 C31         69.1520    14.0990    40.8080 ca         1 66I      -0.167500
      8 C32         67.9830    13.6220    41.3880 ca         1 66I      -0.061000
      9 C10         57.1630    18.6170    47.7930 c3         1 66I       0.399300
     10 C23         63.7290    14.1590    43.6270 c          1 66I       0.585100
     11 C15         61.6000    19.7860    45.5080 c5         1 66I       0.336300
     12 C17         61.5940    18.1030    43.8520 c5         1 66I       0.136300
     13 C18         60.3610    17.2080    43.7940 c3         1 66I       0.193600
     14 C02         58.7410    22.9540    47.8610 ca         1 66I       0.472900
     15 C04         60.7140    23.7950    47.0080 ca         1 66I       0.211900
     16 C06         60.3480    21.6350    46.6640 ca         1 66I       0.217500
     17 C07         59.1140    21.6990    47.3300 ca         1 66I      -0.401900
     18 C08         58.6190    20.3720    47.2530 cc         1 66I       0.629200
     19 C36         62.6410    17.7220    44.8950 c5         1 66I       0.106300
     20 C38         62.1850    18.5140    46.1250 c5         1 66I       0.090300
     21 F11         56.7220    18.2010    46.5750 f          1 66I      -0.104000
     22 F12         56.1410    18.4570    48.6570 f          1 66I      -0.104000
     23 N03         59.5730    23.9960    47.6770 nb         1 66I      -0.304000
     24 N05         61.1800    22.6680    46.4770 nb         1 66I      -0.235000
     25 N13         59.4380    19.5710    46.6240 nd         1 66I      -0.609100
     26 N14         60.5180    20.3460    46.2680 na         1 66I      -0.051100
     27 N22         62.7240    14.9610    43.1110 ns         1 66I      -0.621300
     28 N33         66.1190    14.3860    44.2670 n8         1 66I      -0.982200
     29 O09         57.4250    19.9730    47.7640 os         1 66I      -0.463600
     30 O16         61.1500    19.4270    44.2070 os         1 66I      -0.438000
     31 O19         60.5480    16.0930    42.8580 os         1 66I      -0.600700
     32 O21         60.6150    13.7450    42.3780 o          1 66I      -0.542000
     33 O30         70.3110    15.7420    39.5660 oh         1 66I      -0.538100
     34 O34         63.5030    13.2000    44.3340 o          1 66I      -0.543100
     35 O35         60.8460    14.4940    44.7250 o          1 66I      -0.542000
     36 O37         63.9090    18.1740    44.4450 oh         1 66I      -0.714000
     37 O39         63.2410    18.8540    47.0030 oh         1 66I      -0.706000
     38 S20         61.0930    14.6970    43.3320 s6         1 66I       1.464500
     39 H1          65.1150    15.6630    42.9840 h1         1 66I       0.081700
     40 H2          65.8720    16.1080    40.5100 ha         1 66I       0.110500
     41 H3          67.9360    16.9730    39.4780 ha         1 66I       0.121500
     42 H4          64.6910    13.8930    41.2290 hc         1 66I       0.056700
     43 H5          65.6280    12.7650    42.2010 hc         1 66I       0.056700
     44 H6          70.0770    13.5410    40.8830 ha         1 66I       0.121500
     45 H7          68.0050    12.6800    41.9220 ha         1 66I       0.110500
     46 H8          58.0200    18.0170    48.0900 h3         1 66I       0.084700
     47 H9          62.3590    20.5670    45.4460 h2         1 66I       0.125700
     48 H10         62.0480    18.1500    42.8600 h1         1 66I       0.101700
     49 H11         59.5340    17.7650    43.3630 h1         1 66I       0.093700
     50 H12         60.0700    16.8120    44.7640 h1         1 66I       0.093700
     51 H13         61.3420    24.6720    46.8850 h5         1 66I       0.054100
     52 H14         62.6610    16.6510    45.0980 h1         1 66I       0.066700
     53 H15         61.4000    17.9670    46.6470 h1         1 66I       0.080700
     54 H16         57.3890    24.0710    48.8870 hn         1 66I       0.513000
     55 H17         56.9510    22.4040    48.6940 hn         1 66I       0.513000
     56 H18         62.9560    15.6440    42.3990 hn         1 66I       0.342500
     57 H19         65.8900    14.9460    45.0810 hn         1 66I       0.411000
     58 H20         66.1070    13.4140    44.5640 hn         1 66I       0.411000
     59 H22         70.1700    16.5840    39.1130 ho         1 66I       0.462000
     60 H23         64.4420    18.3530    45.2360 ho         1 66I       0.530000
     61 H24         63.3350    18.1580    47.6660 ho         1 66I       0.522000
     62 N01         57.6050    23.1520    48.5370 nv         1 66I      -1.059900
@<TRIPOS>BOND
     1     1     6 1   
     2     1    10 1   
     3     1    28 1   
     4     1    39 1   
     5     2     3 ar  
     6     2     6 1   
     7     2     8 ar  
     8     3     4 ar  
     9     3    40 1   
    10     4     5 ar  
    11     4    41 1   
    12     5     7 ar  
    13     5    33 1   
    14     6    42 1   
    15     6    43 1   
    16     7     8 ar  
    17     7    44 1   
    18     8    45 1   
    19     9    21 1   
    20     9    22 1   
    21     9    29 1   
    22     9    46 1   
    23    10    27 1   
    24    10    34 2   
    25    11    20 1   
    26    11    26 1   
    27    11    30 1   
    28    11    47 1   
    29    12    13 1   
    30    12    19 1   
    31    12    30 1   
    32    12    48 1   
    33    13    31 1   
    34    13    49 1   
    35    13    50 1   
    36    14    17 ar  
    37    14    23 ar  
    38    14    62 1   
    39    15    23 ar  
    40    15    24 ar  
    41    15    51 1   
    42    16    17 ar  
    43    16    24 ar  
    44    16    26 1   
    45    17    18 1   
    46    18    25 2   
    47    18    29 1   
    48    19    20 1   
    49    19    36 1   
    50    19    52 1   
    51    20    37 1   
    52    20    53 1   
    53    25    26 1   
    54    27    38 1   
    55    27    56 1   
    56    28    57 1   
    57    28    58 1   
    58    31    38 1   
    59    32    38 2   
    60    33    59 1   
    61    35    38 2   
    62    36    60 1   
    63    37    61 1   
    64    54    62 1   
    65    55    62 1   
@<TRIPOS>SUBSTRUCTURE
     1 66I         1 TEMP              0 ****  ****    0 ROOT
