@<TRIPOS>MOLECULE
66I
   62    65     1     0     0
SMALL
No Charge or Current Charge


@<TRIPOS>ATOM
      1 C24         64.9040    15.0270    42.7350 c3         1 66I       0.094500
      2 C26         66.7840    14.2840    41.1300 ca         1 66I      -0.108300
      3 C27         66.6500    15.0650    39.9650 ca         1 66I      -0.061000
      4 C28         67.7870    15.4410    39.2270 ca         1 66I      -0.167500
      5 C29         69.0630    15.0360    39.6500 ca         1 66I       0.135100
      6 C25         65.5450    13.8690    41.9230 c3         1 66I      -0.014100
      7 C31         69.2040    14.2560    40.8070 ca         1 66I      -0.167500
      8 C32         68.0690    13.8790    41.5460 ca         1 66I      -0.061000
      9 C10         57.0550    18.4460    47.3880 c3         1 66I       0.399300
     10 C23         63.5030    14.5930    43.2940 c          1 66I       0.585100
     11 C15         62.1120    19.5650    46.3430 c5         1 66I       0.336300
     12 C17         62.1560    18.0520    44.5400 c5         1 66I       0.136300
     13 C18         60.6600    17.6360    44.3530 c3         1 66I       0.193600
     14 C02         58.5100    22.7370    47.2990 ca         1 66I       0.472900
     15 C04         60.5250    23.7580    46.9260 ca         1 66I       0.211900
     16 C06         60.4710    21.4770    46.8040 ca         1 66I       0.217500
     17 C07         59.1410    21.5270    47.0940 ca         1 66I      -0.401900
     18 C08         58.7140    20.1790    47.1140 cc         1 66I       0.629200
     19 C36         62.9300    17.3330    45.6890 c5         1 66I       0.106300
     20 C38         62.4760    18.1460    46.9440 c5         1 66I       0.090300
     21 F11         56.9200    18.0850    46.0910 f          1 66I      -0.104000
     22 F12         55.8430    18.2710    47.9610 f          1 66I      -0.104000
     23 N03         59.2040    23.8810    47.2180 nb         1 66I      -0.304000
     24 N05         61.2050    22.6030    46.7130 nb         1 66I      -0.235000
     25 N13         59.6740    19.2860    46.8900 nd         1 66I      -0.609100
     26 N14         60.7840    20.1270    46.6710 na         1 66I      -0.051100
     27 N22         62.4500    15.3160    42.8230 ns         1 66I      -0.621300
     28 N33         65.8540    15.5560    43.7760 n8         1 66I      -0.982200
     29 O09         57.4570    19.8180    47.4960 os         1 66I      -0.463600
     30 O16         62.2600    19.4480    44.9030 os         1 66I      -0.438000
     31 O19         60.5130    16.8240    43.1610 os         1 66I      -0.600700
     32 O21         60.1370    14.5280    42.1870 o          1 66I      -0.542000
     33 O30         70.1700    15.3950    38.9400 oh         1 66I      -0.538100
     34 O34         63.3760    13.6900    44.1060 o          1 66I      -0.543100
     35 O35         60.7450    14.7780    44.6560 o          1 66I      -0.542000
     36 O37         64.3480    17.4500    45.5550 oh         1 66I      -0.714000
     37 O39         63.5500    18.1760    47.9170 oh         1 66I      -0.706000
     38 S20         60.8540    15.2170    43.2630 s6         1 66I       1.464500
     39 H1          64.7130    15.8480    42.0290 h1         1 66I       0.081700
     40 H2          65.6640    15.3810    39.6290 ha         1 66I       0.110500
     41 H3          67.6680    16.0440    38.3300 ha         1 66I       0.121500
     42 H4          64.7950    13.4740    41.2260 hc         1 66I       0.056700
     43 H5          65.7820    13.0400    42.6010 hc         1 66I       0.056700
     44 H6          70.1920    13.9420    41.1330 ha         1 66I       0.121500
     45 H7          68.1880    13.2750    42.4430 ha         1 66I       0.110500
     46 H8          57.7760    17.7800    47.8760 h3         1 66I       0.084700
     47 H9          62.8300    20.3080    46.7090 h2         1 66I       0.125700
     48 H10         62.6670    17.9230    43.5780 h1         1 66I       0.101700
     49 H11         60.0780    18.5580    44.2230 h1         1 66I       0.093700
     50 H12         60.2680    17.1450    45.2540 h1         1 66I       0.093700
     51 H13         61.0980    24.6810    46.8570 h5         1 66I       0.054100
     52 H14         62.6440    16.2760    45.7770 h1         1 66I       0.066700
     53 H15         61.5860    17.6700    47.3790 h1         1 66I       0.080700
     54 H16         56.8580    23.7110    47.9780 hn         1 66I       0.513000
     55 H17         56.7060    21.9890    47.8550 hn         1 66I       0.513000
     56 H18         62.5820    16.0100    42.1100 hn         1 66I       0.342500
     57 H19         65.3820    16.3030    44.3150 hn         1 66I       0.411000
     58 H20         66.0070    14.8310    44.4870 hn         1 66I       0.411000
     59 H22         69.8840    15.9330    38.1700 ho         1 66I       0.462000
     60 H23         64.6050    17.7590    46.4650 ho         1 66I       0.530000
     61 H24         63.1510    18.3740    48.8000 ho         1 66I       0.522000
     62 N01         57.1970    22.8370    47.5840 nv         1 66I      -1.059900
@<TRIPOS>BOND
     1     1     6 1   
     2     1    10 1   
     3     1    28 1   
     4     1    39 1   
     5     2     3 ar  
     6     2     6 1   
     7     2     8 ar  
     8     3     4 ar  
     9     3    40 1   
    10     4     5 ar  
    11     4    41 1   
    12     5     7 ar  
    13     5    33 1   
    14     6    42 1   
    15     6    43 1   
    16     7     8 ar  
    17     7    44 1   
    18     8    45 1   
    19     9    21 1   
    20     9    22 1   
    21     9    29 1   
    22     9    46 1   
    23    10    27 1   
    24    10    34 2   
    25    11    20 1   
    26    11    26 1   
    27    11    30 1   
    28    11    47 1   
    29    12    13 1   
    30    12    19 1   
    31    12    30 1   
    32    12    48 1   
    33    13    31 1   
    34    13    49 1   
    35    13    50 1   
    36    14    17 ar  
    37    14    23 ar  
    38    14    62 1   
    39    15    23 ar  
    40    15    24 ar  
    41    15    51 1   
    42    16    17 ar  
    43    16    24 ar  
    44    16    26 1   
    45    17    18 1   
    46    18    25 2   
    47    18    29 1   
    48    19    20 1   
    49    19    36 1   
    50    19    52 1   
    51    20    37 1   
    52    20    53 1   
    53    25    26 1   
    54    27    38 1   
    55    27    56 1   
    56    28    57 1   
    57    28    58 1   
    58    31    38 1   
    59    32    38 2   
    60    33    59 1   
    61    35    38 2   
    62    36    60 1   
    63    37    61 1   
    64    54    62 1   
    65    55    62 1   
@<TRIPOS>SUBSTRUCTURE
     1 66I         1 TEMP              0 ****  ****    0 ROOT
