@<TRIPOS>MOLECULE
66J
   43    45     1     0     0
SMALL
abcg2


@<TRIPOS>ATOM
      1 C1           2.9040    -0.5190    -0.4330 ca         1 66J      -0.068000
      2 C11         -3.6950     0.8990    -1.0420 c2         1 66J       0.830100
      3 C14         -2.2740     1.1670     2.3740 c3         1 66J      -0.097100
      4 C21          1.3500     1.4690    -0.1710 cc         1 66J      -0.114000
      5 C20          1.6360     0.1370    -0.1310 cd         1 66J      -0.152000
      6 C22          0.0070     1.7370     0.1850 cc         1 66J       0.103000
      7 C26          8.9270     1.2310     0.1860 c3         1 66J      -0.011000
      8 C13         -2.1850     0.5600     0.9700 c6         1 66J       0.378500
      9 C2           4.1130     0.1250    -0.1910 ca         1 66J      -0.044000
     10 C4           5.2290    -1.8080    -1.0400 ca         1 66J       0.359900
     11 C6           2.9540    -1.8010    -0.9810 ca         1 66J       0.347900
     12 C7          -0.7410     0.6330     0.4860 cd         1 66J      -0.243300
     13 C8          -2.6460    -0.9120     1.0450 c6         1 66J      -0.346400
     14 C3           5.3060    -0.5190    -0.5030 ca         1 66J      -0.006000
     15 N5           4.0840    -2.4280    -1.2700 nb         1 66J      -0.660000
     16 S9          -4.3420    -1.0890     0.5420 s6         1 66J       1.235100
     17 N10         -4.1660    -0.4150    -0.9830 nh         1 66J      -0.756500
     18 N12         -3.0730     1.3250     0.1030 nu         1 66J      -0.930400
     19 O16         -5.2220    -0.2970     1.3810 o          1 66J      -0.521500
     20 O18         -4.6440    -2.4960     0.3570 o          1 66J      -0.521500
     21 S19          0.2530    -0.7670     0.3460 ss         1 66J       0.260000
     22 CL23        -0.5730     3.3610     0.2180 cl         1 66J      -0.166000
     23 C25          7.6380     0.6110    -0.0620 c1         1 66J      -0.093100
     24 H1          -1.5990     0.6470     3.0520 hc         1 66J       0.059700
     25 H2          -2.0040     2.2220     2.3700 hc         1 66J       0.059700
     26 H3          -3.2920     1.0730     2.7520 hc         1 66J       0.059700
     27 H4          -4.1930    -0.8830    -3.0090 h1         1 66J       0.057700
     28 H5          -4.9670    -2.0700    -1.9760 h1         1 66J       0.057700
     29 H6          -5.8020    -0.5500    -2.3270 h1         1 66J       0.057700
     30 H7           2.0540     2.2360    -0.4600 ha         1 66J       0.153000
     31 H8           8.8210     2.1040     0.8300 hc         1 66J       0.057033
     32 H9           9.6070     0.5320     0.6740 hc         1 66J       0.057033
     33 H10          9.3920     1.5530    -0.7460 hc         1 66J       0.057033
     34 H11          4.1320     1.1130     0.2520 ha         1 66J       0.131000
     35 H12          6.1380    -2.3450    -1.2860 h4         1 66J       0.030100
     36 H13          2.0370    -2.3380    -1.2060 h4         1 66J       0.024100
     37 H14         -2.1190    -1.5750     0.3590 h1         1 66J       0.114700
     38 H15         -2.5440    -1.3130     2.0540 h1         1 66J       0.114700
     39 H16         -2.8820     2.3150     0.0800 hn         1 66J       0.516000
     40 H17         -4.4640     1.3330    -2.7360 hn         1 66J       0.403400
     41 N15         -3.8490     1.6960    -2.0190 n2         1 66J      -0.854100
     42 C17         -4.8300    -1.0060    -2.1350 c3         1 66J       0.204100
     43 C24          6.5680     0.0970    -0.2690 cg         1 66J      -0.143000
@<TRIPOS>BOND
     1     1     5 1   
     2     1     9 ar  
     3     1    11 ar  
     4     2    17 1   
     5     2    18 1   
     6     2    41 2   
     7     3     8 1   
     8     3    24 1   
     9     3    25 1   
    10     3    26 1   
    11     4     5 2   
    12     4     6 1   
    13     4    30 1   
    14     5    21 1   
    15     6    12 2   
    16     6    22 1   
    17     7    23 1   
    18     7    31 1   
    19     7    32 1   
    20     7    33 1   
    21     8    12 1   
    22     8    13 1   
    23     8    18 1   
    24     9    14 ar  
    25     9    34 1   
    26    10    14 ar  
    27    10    15 ar  
    28    10    35 1   
    29    11    15 ar  
    30    11    36 1   
    31    12    21 1   
    32    13    16 1   
    33    13    37 1   
    34    13    38 1   
    35    14    43 1   
    36    16    17 1   
    37    16    19 2   
    38    16    20 2   
    39    17    42 1   
    40    18    39 1   
    41    23    43 3   
    42    27    42 1   
    43    28    42 1   
    44    29    42 1   
    45    40    41 1   
@<TRIPOS>SUBSTRUCTURE
     1 66J         1 TEMP              0 ****  ****    0 ROOT
