@<TRIPOS>MOLECULE
66J
   43    45     1     0     0
SMALL
No Charge or Current Charge


@<TRIPOS>ATOM
      1 C1           3.2500    -0.7690     0.1800 ca         1 66J      -0.068000
      2 C11         -3.9490     1.1090    -0.8050 c2         1 66J       0.830100
      3 C14         -2.5000     0.7940     1.9330 c3         1 66J      -0.097100
      4 C21          1.5580     1.1480     0.1050 cc         1 66J      -0.114000
      5 C20          1.8940    -0.1770     0.2280 cd         1 66J      -0.152000
      6 C22          0.1690     1.4120     0.1920 cc         1 66J       0.103000
      7 C26          9.0100     1.7540    -0.6070 c3         1 66J      -0.011000
      8 C13         -2.1150     0.2110     0.5440 c6         1 66J       0.378500
      9 C2           4.3940     0.0360    -0.0120 ca         1 66J      -0.044000
     10 C4           5.7470    -1.9700     0.1040 ca         1 66J       0.359900
     11 C6           3.4480    -2.1650     0.3240 ca         1 66J       0.347900
     12 C7          -0.6030     0.2820     0.3740 cd         1 66J      -0.243300
     13 C8          -2.6160    -1.2120     0.3190 c6         1 66J      -0.346400
     14 C3           5.6610    -0.5720    -0.0500 ca         1 66J      -0.006000
     15 N5           4.6630    -2.7620     0.2880 nb         1 66J      -0.660000
     16 S9          -4.3760    -1.2900     0.0260 s6         1 66J       1.235100
     17 N10         -4.5840    -0.0330    -1.1000 nh         1 66J      -0.756500
     18 N12         -2.6540     1.0000    -0.5280 nu         1 66J      -0.930400
     19 O16         -5.1130    -0.9130     1.2360 o          1 66J      -0.521500
     20 O18         -4.6810    -2.5520    -0.6580 o          1 66J      -0.521500
     21 S19          0.4350    -1.1590     0.4810 ss         1 66J       0.260000
     22 Cl23        -0.3970     3.0560     0.0810 cl         1 66J      -0.166000
     23 C25          7.8370     0.8980    -0.4080 c1         1 66J      -0.093100
     24 H1          -2.1490     0.1410     2.7400 hc         1 66J       0.059700
     25 H2          -2.0460     1.7780     2.0930 hc         1 66J       0.059700
     26 H3          -3.5790     0.9260     2.0560 hc         1 66J       0.059700
     27 H4          -5.5230     0.3090    -2.9750 h1         1 66J       0.057700
     28 H5          -6.0830    -1.1540    -2.1560 h1         1 66J       0.057700
     29 H6          -6.6080     0.4350    -1.5670 h1         1 66J       0.057700
     30 H7           2.2670     1.9550    -0.0440 ha         1 66J       0.153000
     31 H8           8.9130     2.6760    -0.0230 hc         1 66J       0.057033
     32 H9           9.9210     1.2330    -0.2890 hc         1 66J       0.057033
     33 H10          9.1120     2.0210    -1.6660 hc         1 66J       0.057033
     34 H11          4.3140     1.1130    -0.1290 ha         1 66J       0.131000
     35 H12          6.7130    -2.4750     0.0790 h4         1 66J       0.030100
     36 H13          2.6070    -2.8400     0.4740 h4         1 66J       0.024100
     37 H14         -2.1820    -1.6280    -0.5960 h1         1 66J       0.114700
     38 H15         -2.4080    -1.8730     1.1670 h1         1 66J       0.114700
     39 H16         -2.2020     1.8880    -0.6860 hn         1 66J       0.516000
     40 H17         -5.2620     2.0870    -1.6110 hn         1 66J       0.403400
     41 N15         -4.3200     2.2240    -1.2380 n2         1 66J      -0.854100
     42 C17         -5.7600    -0.1180    -1.9920 c3         1 66J       0.204100
     43 C24          6.8420     0.2200    -0.2440 cg         1 66J      -0.143000
@<TRIPOS>BOND
     1     1     5 1   
     2     1     9 ar  
     3     1    11 ar  
     4     2    17 1   
     5     2    18 1   
     6     2    41 2   
     7     3     8 1   
     8     3    24 1   
     9     3    25 1   
    10     3    26 1   
    11     4     5 2   
    12     4     6 1   
    13     4    30 1   
    14     5    21 1   
    15     6    12 2   
    16     6    22 1   
    17     7    23 1   
    18     7    31 1   
    19     7    32 1   
    20     7    33 1   
    21     8    12 1   
    22     8    13 1   
    23     8    18 1   
    24     9    14 ar  
    25     9    34 1   
    26    10    14 ar  
    27    10    15 ar  
    28    10    35 1   
    29    11    15 ar  
    30    11    36 1   
    31    12    21 1   
    32    13    16 1   
    33    13    37 1   
    34    13    38 1   
    35    14    43 1   
    36    16    17 1   
    37    16    19 2   
    38    16    20 2   
    39    17    42 1   
    40    18    39 1   
    41    23    43 3   
    42    27    42 1   
    43    28    42 1   
    44    29    42 1   
    45    40    41 1   
@<TRIPOS>SUBSTRUCTURE
     1 66J         1 TEMP              0 ****  ****    0 ROOT
