@<TRIPOS>MOLECULE
66K
   79    83     1     0     0
SMALL
No Charge or Current Charge


@<TRIPOS>ATOM
      1 CAX          5.0660    -2.5080     0.0960 c6         1 66K       0.169800
      2 CAV          5.5230    -3.5890     1.1270 c6         1 66K       0.163300
      3 NBN          6.6400    -4.4380     0.6080 n3         1 66K      -0.718600
      4 CAB          7.0640    -5.4770     1.5700 c3         1 66K       0.153100
      5 CAW          7.7710    -3.5710     0.1550 c6         1 66K       0.163300
      6 CAY          7.3150    -2.4920    -0.8800 c6         1 66K       0.169800
      7 NBO          6.1980    -1.6440    -0.3630 n3         1 66K      -0.720600
      8 CAZ          5.7930    -0.5890    -1.3260 c3         1 66K       0.205100
      9 CBJ          4.7510     0.4020    -0.7810 ca         1 66K      -0.001300
     10 CBL          5.0870     1.5230     0.0290 ca         1 66K      -0.179300
     11 CBQ          6.5480     1.8380     0.4170 c3         1 66K       0.359300
     12 FAF          7.3110     2.0980    -0.6690 f          1 66K      -0.110000
     13 FAG          6.6610     2.9220     1.2190 f          1 66K      -0.110000
     14 FAE          7.1330     0.8190     1.0840 f          1 66K      -0.110000
     15 CAQ          4.0470     2.3750     0.4790 ca         1 66K      -0.017000
     16 CAN          3.4020     0.1760    -1.1160 ca         1 66K      -0.130000
     17 CAM          2.3840     1.0250    -0.6630 ca         1 66K      -0.062000
     18 CBI          2.6940     2.1410     0.1450 ca         1 66K      -0.163600
     19 CBD          1.6250     3.0890     0.6600 c          1 66K       0.619700
     20 OAC          1.9200     4.0520     1.3600 o          1 66K      -0.566100
     21 NBB          0.3200     2.7870     0.2880 ns         1 66K      -0.144000
     22 CBG         -0.9280     3.4140     0.5550 ca         1 66K       0.008000
     23 CAP         -2.0800     2.7990     0.0330 ca         1 66K      -0.256000
     24 CAL         -1.0680     4.6030     1.2990 ca         1 66K      -0.156000
     25 CAK         -2.3370     5.1640     1.5130 ca         1 66K      -0.055000
     26 CBF         -3.4880     4.5460     0.9920 ca         1 66K      -0.125300
     27 CAA         -4.8590     5.1690     1.2350 c3         1 66K      -0.030800
     28 CBK         -3.3630     3.3510     0.2530 ca         1 66K       0.173100
     29 OBC         -4.5180     2.7760    -0.2510 os         1 66K      -0.345100
     30 CBM         -4.5550     1.4280    -0.7650 c6         1 66K       0.179300
     31 CAS         -5.9080     1.1950    -1.4700 c6         1 66K      -0.117900
     32 CAU         -6.0170    -0.2590    -1.9780 c6         1 66K       0.097000
     33 CAR         -4.3810     0.3910     0.3740 c6         1 66K      -0.117900
     34 CAT         -4.5320    -1.0550    -0.1530 c6         1 66K       0.097000
     35 NBP         -5.8210    -1.2430    -0.8790 n          1 66K      -0.406800
     36 CBE         -6.9190    -1.9240    -0.3020 c          1 66K       0.622700
     37 OAD         -8.0680    -1.5940    -0.5620 o          1 66K      -0.584100
     38 CBH         -6.6580    -3.1340     0.5480 ca         1 66K      -0.201600
     39 CAJ         -5.5530    -3.9900     0.3510 ca         1 66K      -0.049000
     40 CAH         -5.4240    -5.1120     1.1840 ca         1 66K      -0.173000
     41 CAI         -6.3950    -5.3520     2.1690 ca         1 66K       0.351900
     42 NBA         -7.4700    -4.5500     2.3480 nb         1 66K      -0.667000
     43 CAO         -7.5950    -3.4690     1.5410 ca         1 66K       0.380900
     44 H1           4.6060    -3.0160    -0.7650 h1         1 66K       0.037950
     45 H2           4.2820    -1.8980     0.5670 h1         1 66K       0.037950
     46 H3           5.8360    -3.0780     2.0500 h1         1 66K       0.040950
     47 H4           4.6570    -4.2160     1.3860 h1         1 66K       0.040950
     48 H6           6.2180    -6.1230     1.8400 h1         1 66K       0.031367
     49 H7           7.8490    -6.1100     1.1340 h1         1 66K       0.031367
     50 H8           7.4580    -5.0230     2.4890 h1         1 66K       0.031367
     51 H9           8.2220    -3.0570     1.0170 h1         1 66K       0.040950
     52 H10          8.5610    -4.1840    -0.3020 h1         1 66K       0.040950
     53 H11          8.1810    -1.8650    -1.1350 h1         1 66K       0.037950
     54 H12          7.0040    -3.0030    -1.8030 h1         1 66K       0.037950
     55 H14          6.6770    -0.0300    -1.6590 h1         1 66K       0.048200
     56 H15          5.3860    -1.0590    -2.2320 h1         1 66K       0.048200
     57 H16          4.2870     3.2370     1.0980 ha         1 66K       0.155000
     58 H17          3.1360    -0.6780    -1.7360 ha         1 66K       0.121000
     59 H18          1.3610     0.7970    -0.9520 ha         1 66K       0.119000
     60 H19          0.2370     1.9600    -0.2850 hn         1 66K       0.150000
     61 H20         -1.9570     1.8910    -0.5470 ha         1 66K       0.109000
     62 H21         -0.2080     5.1150     1.7180 ha         1 66K       0.146000
     63 H22         -2.4230     6.0840     2.0870 ha         1 66K       0.118000
     64 H23         -5.3470     5.4270     0.2870 hc         1 66K       0.042700
     65 H24         -5.5170     4.4740     1.7710 hc         1 66K       0.042700
     66 H25         -4.7930     6.0860     1.8320 hc         1 66K       0.042700
     67 H26         -3.7620     1.3030    -1.5160 h1         1 66K       0.041700
     68 H27         -6.7330     1.4050    -0.7760 hc         1 66K       0.066450
     69 H28         -6.0160     1.8910    -2.3120 hc         1 66K       0.066450
     70 H29         -6.9910    -0.4100    -2.4640 h1         1 66K       0.059450
     71 H30         -5.2500    -0.4330    -2.7460 h1         1 66K       0.059450
     72 H31         -3.4000     0.5010     0.8530 hc         1 66K       0.066450
     73 H32         -5.1310     0.5740     1.1550 hc         1 66K       0.066450
     74 H33         -3.7010    -1.2880    -0.8350 h1         1 66K       0.059450
     75 H34         -4.4530    -1.7360     0.7030 h1         1 66K       0.059450
     76 H35         -4.8240    -3.8070    -0.4360 ha         1 66K       0.124000
     77 H36         -4.5870    -5.7950     1.0700 ha         1 66K       0.127000
     78 H37         -6.3180    -6.2160     2.8270 h4         1 66K       0.023100
     79 H38         -8.4730    -2.8460     1.7150 h4         1 66K       0.035100
@<TRIPOS>BOND
     1     1     2 1   
     2     1     7 1   
     3     1    44 1   
     4     1    45 1   
     5     2     3 1   
     6     2    46 1   
     7     2    47 1   
     8     3     4 1   
     9     3     5 1   
    10     4    48 1   
    11     4    49 1   
    12     4    50 1   
    13     5     6 1   
    14     5    51 1   
    15     5    52 1   
    16     6     7 1   
    17     6    53 1   
    18     6    54 1   
    19     7     8 1   
    20     8     9 1   
    21     8    55 1   
    22     8    56 1   
    23     9    10 ar  
    24     9    16 ar  
    25    10    11 1   
    26    10    15 ar  
    27    11    12 1   
    28    11    13 1   
    29    11    14 1   
    30    15    18 ar  
    31    15    57 1   
    32    16    17 ar  
    33    16    58 1   
    34    17    18 ar  
    35    17    59 1   
    36    18    19 1   
    37    19    20 2   
    38    19    21 1   
    39    21    22 1   
    40    21    60 1   
    41    22    23 ar  
    42    22    24 ar  
    43    23    28 ar  
    44    23    61 1   
    45    24    25 ar  
    46    24    62 1   
    47    25    26 ar  
    48    25    63 1   
    49    26    27 1   
    50    26    28 ar  
    51    27    64 1   
    52    27    65 1   
    53    27    66 1   
    54    28    29 1   
    55    29    30 1   
    56    30    31 1   
    57    30    33 1   
    58    30    67 1   
    59    31    32 1   
    60    31    68 1   
    61    31    69 1   
    62    32    35 1   
    63    32    70 1   
    64    32    71 1   
    65    33    34 1   
    66    33    72 1   
    67    33    73 1   
    68    34    35 1   
    69    34    74 1   
    70    34    75 1   
    71    35    36 1   
    72    36    37 2   
    73    36    38 1   
    74    38    39 ar  
    75    38    43 ar  
    76    39    40 ar  
    77    39    76 1   
    78    40    41 ar  
    79    40    77 1   
    80    41    42 ar  
    81    41    78 1   
    82    42    43 ar  
    83    43    79 1   
@<TRIPOS>SUBSTRUCTURE
     1 66K         1 TEMP              0 ****  ****    0 ROOT
