@<TRIPOS>MOLECULE
66K
   79    83     1     0     0
SMALL
bcc


@<TRIPOS>ATOM
      1 CAX          5.9150    -2.5550     1.0740 c6         1 66K       0.169800
      2 CAV          7.0800    -2.5950     2.0440 c6         1 66K       0.163300
      3 NBN          8.1920    -3.3320     1.4810 n3         1 66K      -0.718600
      4 CAB          9.2940    -3.4240     2.4090 c3         1 66K       0.153100
      5 CAW          8.5960    -2.7400     0.2220 c6         1 66K       0.163300
      6 CAY          7.4350    -2.7110    -0.7530 c6         1 66K       0.169800
      7 NBO          6.3240    -1.9730    -0.1870 n3         1 66K      -0.720600
      8 CAZ          5.2290    -1.8280    -1.1230 c3         1 66K       0.205100
      9 CBJ          4.2880    -0.7160    -0.7210 ca         1 66K      -0.001300
     10 CBL          4.5560     0.6520    -0.8910 ca         1 66K      -0.179300
     11 CBQ          5.7940     1.1260    -1.6050 c3         1 66K       0.723200
     12 FAF          5.8390     0.6660    -2.8660 f          1 66K      -0.231300
     13 FAG          5.8450     2.4610    -1.6940 f          1 66K      -0.231300
     14 FAE          6.9250     0.7430    -1.0100 f          1 66K      -0.231300
     15 CAQ          3.6520     1.6030    -0.4450 ca         1 66K      -0.035000
     16 CAN          3.0880    -1.0680    -0.1160 ca         1 66K      -0.148000
     17 CAM          2.1730    -0.1200     0.3140 ca         1 66K      -0.080000
     18 CBI          2.4510     1.2300     0.1500 ca         1 66K      -0.163600
     19 CBD          1.5340     2.3120     0.6210 c          1 66K       0.686700
     20 OAC          1.9680     3.3930     0.9810 o          1 66K      -0.566100
     21 NBB          0.2190     1.9880     0.5950 ns         1 66K      -0.470100
     22 CBG         -0.8760     2.7660     0.9920 ca         1 66K       0.100600
     23 CAP         -2.1200     2.3790     0.4850 ca         1 66K      -0.274000
     24 CAL         -0.7940     3.8430     1.8650 ca         1 66K      -0.174000
     25 CAK         -1.9650     4.5100     2.2120 ca         1 66K      -0.073000
     26 CBF         -3.2120     4.1490     1.7300 ca         1 66K      -0.125300
     27 CAA         -4.4560     4.8850     2.1270 c3         1 66K      -0.030800
     28 CBK         -3.2750     3.0570     0.8490 ca         1 66K       0.173100
     29 OBC         -4.5070     2.7530     0.3960 os         1 66K      -0.321900
     30 CBM         -4.7230     1.6390    -0.4580 c6         1 66K       0.156100
     31 CAS         -6.0670     1.8430    -1.1360 c6         1 66K      -0.117900
     32 CAU         -6.3710     0.6500    -2.0340 c6         1 66K       0.097000
     33 CAR         -4.7170     0.3230     0.3080 c6         1 66K      -0.117900
     34 CAT         -5.0670    -0.8370    -0.6210 c6         1 66K       0.097000
     35 NBP         -6.3380    -0.5970    -1.2870 n          1 66K      -0.473800
     36 CBE         -7.4830    -1.2640    -1.0310 c          1 66K       0.689700
     37 OAD         -8.5900    -0.8490    -1.3470 o          1 66K      -0.584100
     38 CBH         -7.3780    -2.6030    -0.3730 ca         1 66K      -0.266900
     39 CAJ         -6.5820    -3.6250    -0.8770 ca         1 66K      -0.067000
     40 CAH         -6.6340    -4.8700    -0.2730 ca         1 66K      -0.256300
     41 CAI         -7.4740    -5.0430     0.8170 ca         1 66K       0.417200
     42 NBA         -8.2410    -4.0750     1.3050 nb         1 66K      -0.667000
     43 CAO         -8.2010    -2.8910     0.7120 ca         1 66K       0.446200
     44 H1           5.5150    -3.5760     0.9390 h1         1 66K       0.037950
     45 H2           5.1160    -1.9550     1.5140 h1         1 66K       0.037950
     46 H3           7.3670    -1.5610     2.3030 h1         1 66K       0.040950
     47 H4           6.7590    -3.0820     2.9680 h1         1 66K       0.040950
     48 H6           8.9740    -3.9270     3.3230 h1         1 66K       0.031367
     49 H7          10.1050    -4.0100     1.9730 h1         1 66K       0.031367
     50 H8           9.7060    -2.4420     2.6940 h1         1 66K       0.031367
     51 H9           8.9750    -1.7110     0.3570 h1         1 66K       0.040950
     52 H10          9.4100    -3.3300    -0.2060 h1         1 66K       0.040950
     53 H11          7.7570    -2.2210    -1.6740 h1         1 66K       0.037950
     54 H12          7.1540    -3.7450    -1.0130 h1         1 66K       0.037950
     55 H14          5.6420    -1.6400    -2.1150 h1         1 66K       0.048200
     56 H15          4.6400    -2.7550    -1.2160 h1         1 66K       0.048200
     57 H16          3.8590     2.6570    -0.5660 ha         1 66K       0.173000
     58 H17          2.8650    -2.1180     0.0270 ha         1 66K       0.139000
     59 H18          1.2630    -0.4540     0.7950 ha         1 66K       0.137000
     60 H19         -0.0240     1.1250     0.1330 hn         1 66K       0.316500
     61 H20         -2.1560     1.5420    -0.2000 ha         1 66K       0.127000
     62 H21          0.1450     4.1620     2.2860 ha         1 66K       0.164000
     63 H22         -1.8960     5.3470     2.8960 ha         1 66K       0.136000
     64 H23         -4.9690     5.3120     1.2630 hc         1 66K       0.042700
     65 H24         -5.1710     4.2320     2.6290 hc         1 66K       0.042700
     66 H25         -4.2180     5.7010     2.8080 hc         1 66K       0.042700
     67 H26         -3.9530     1.6110    -1.2420 h1         1 66K       0.041700
     68 H27         -6.8550     1.9520    -0.3850 hc         1 66K       0.066450
     69 H28         -6.0530     2.7520    -1.7400 hc         1 66K       0.066450
     70 H29         -7.3400     0.7640    -2.5110 h1         1 66K       0.059450
     71 H30         -5.6210     0.5850    -2.8290 h1         1 66K       0.059450
     72 H31         -3.7410     0.1220     0.7550 hc         1 66K       0.066450
     73 H32         -5.4460     0.3720     1.1220 hc         1 66K       0.066450
     74 H33         -4.2880    -0.9590    -1.3790 h1         1 66K       0.059450
     75 H34         -5.1030    -1.7580    -0.0460 h1         1 66K       0.059450
     76 H35         -5.9380    -3.4580    -1.7310 ha         1 66K       0.142000
     77 H36         -6.0350    -5.6930    -0.6390 ha         1 66K       0.145000
     78 H37         -7.5320    -6.0050     1.3140 h4         1 66K       0.023100
     79 H38         -8.8460    -2.1220     1.1240 h4         1 66K       0.035100
@<TRIPOS>BOND
     1     1     2 1   
     2     1     7 1   
     3     1    44 1   
     4     1    45 1   
     5     2     3 1   
     6     2    46 1   
     7     2    47 1   
     8     3     4 1   
     9     3     5 1   
    10     4    48 1   
    11     4    49 1   
    12     4    50 1   
    13     5     6 1   
    14     5    51 1   
    15     5    52 1   
    16     6     7 1   
    17     6    53 1   
    18     6    54 1   
    19     7     8 1   
    20     8     9 1   
    21     8    55 1   
    22     8    56 1   
    23     9    10 ar  
    24     9    16 ar  
    25    10    11 1   
    26    10    15 ar  
    27    11    12 1   
    28    11    13 1   
    29    11    14 1   
    30    15    18 ar  
    31    15    57 1   
    32    16    17 ar  
    33    16    58 1   
    34    17    18 ar  
    35    17    59 1   
    36    18    19 1   
    37    19    20 2   
    38    19    21 1   
    39    21    22 1   
    40    21    60 1   
    41    22    23 ar  
    42    22    24 ar  
    43    23    28 ar  
    44    23    61 1   
    45    24    25 ar  
    46    24    62 1   
    47    25    26 ar  
    48    25    63 1   
    49    26    27 1   
    50    26    28 ar  
    51    27    64 1   
    52    27    65 1   
    53    27    66 1   
    54    28    29 1   
    55    29    30 1   
    56    30    31 1   
    57    30    33 1   
    58    30    67 1   
    59    31    32 1   
    60    31    68 1   
    61    31    69 1   
    62    32    35 1   
    63    32    70 1   
    64    32    71 1   
    65    33    34 1   
    66    33    72 1   
    67    33    73 1   
    68    34    35 1   
    69    34    74 1   
    70    34    75 1   
    71    35    36 1   
    72    36    37 2   
    73    36    38 1   
    74    38    39 ar  
    75    38    43 ar  
    76    39    40 ar  
    77    39    76 1   
    78    40    41 ar  
    79    40    77 1   
    80    41    42 ar  
    81    41    78 1   
    82    42    43 ar  
    83    43    79 1   
@<TRIPOS>SUBSTRUCTURE
     1 66K         1 TEMP              0 ****  ****    0 ROOT
