@<TRIPOS>MOLECULE
66L
   72    77     1     0     0
SMALL
No Charge or Current Charge


@<TRIPOS>ATOM
      1 CAS        -11.2400     1.5290     0.7230 c6         1 66L       0.126300
      2 CAP        -12.0630     1.6180    -0.5970 c6         1 66L       0.153600
      3 OBB        -12.3150     0.2930    -1.1220 os         1 66L      -0.451000
      4 CAQ        -11.0950    -0.4420    -1.3850 c6         1 66L       0.153600
      5 CAT        -10.2490    -0.5740    -0.0830 c6         1 66L       0.126300
      6 NBP         -9.9700     0.7610     0.5380 n3         1 66L      -0.705600
      7 CAU         -9.1590     0.6910     1.7900 c3         1 66L       0.163800
      8 CAR         -7.7430     0.0640     1.6630 c3         1 66L       0.176600
      9 OBC         -6.9640     0.8350     0.7220 os         1 66L      -0.443300
     10 CBK         -5.6740     0.4840     0.4090 ca         1 66L       0.596300
     11 CAO         -5.0060     1.2630    -0.5340 ca         1 66L      -0.188000
     12 NAX         -5.1050    -0.5780     1.0130 nb         1 66L      -0.762000
     13 CAM         -3.8350    -0.8880     0.6780 ca         1 66L       0.437900
     14 CBO         -3.0950    -0.1570    -0.2610 ca         1 66L      -0.203000
     15 CBN         -3.6930     0.9490    -0.8850 ca         1 66L       0.348000
     16 NAY         -3.0390     1.6960    -1.7990 nb         1 66L      -0.688000
     17 CAE         -1.7690     1.3630    -2.1200 ca         1 66L       0.408900
     18 CAF         -1.1040     0.2760    -1.5430 ca         1 66L      -0.283000
     19 CBM         -1.7760    -0.4980    -0.5870 ca         1 66L       0.216100
     20 OBD         -1.1710    -1.5850     0.0040 os         1 66L      -0.226200
     21 CBL          0.1890    -1.6530     0.2210 ca         1 66L       0.014100
     22 CBJ          0.8740    -0.6480     0.9360 ca         1 66L       0.201000
     23 FAD          0.2090     0.4170     1.4400 f          1 66L      -0.156000
     24 CAN          2.2580    -0.7490     1.1450 ca         1 66L      -0.211000
     25 CAL          0.8990    -2.7640    -0.2610 ca         1 66L      -0.058000
     26 CAK          2.2870    -2.8630    -0.0510 ca         1 66L      -0.141000
     27 CBI          2.9800    -1.8530     0.6530 ca         1 66L       0.016000
     28 NBA          4.3790    -1.8840     0.9030 ns         1 66L      -0.143000
     29 CBF          5.3660    -2.8020     0.5780 c          1 66L       0.656100
     30 OAB          5.1770    -3.8470    -0.0290 o          1 66L      -0.569100
     31 CBQ          6.7380    -2.4040     1.0380 cx         1 66L      -0.344000
     32 CAV          7.5160    -3.4000     1.8890 cx         1 66L      -0.076400
     33 CAW          6.9730    -2.1400     2.5210 cx         1 66L      -0.076400
     34 CBE          7.5060    -1.6050     0.0260 c          1 66L       0.632100
     35 OAA          8.2010    -2.1490    -0.8200 o          1 66L      -0.550100
     36 NAZ          7.3400    -0.2320     0.1550 ns         1 66L      -0.153000
     37 CBH          7.8480     0.8700    -0.5870 ca         1 66L      -0.049000
     38 CAI          7.5130     2.1640    -0.1400 ca         1 66L      -0.121000
     39 CAG          7.9780     3.3020    -0.8250 ca         1 66L      -0.123500
     40 CBG          8.7800     3.1510    -1.9640 ca         1 66L       0.152000
     41 FAC          9.2270     4.2420    -2.6230 f          1 66L      -0.175000
     42 CAH          9.1200     1.8700    -2.4230 ca         1 66L      -0.123500
     43 CAJ          8.6570     0.7300    -1.7390 ca         1 66L      -0.121000
     44 H1         -11.0220     2.5500     1.0710 h1         1 66L       0.039700
     45 H2         -11.8650     1.0530     1.4940 h1         1 66L       0.039700
     46 H3         -13.0220     2.1200    -0.4070 h1         1 66L       0.051950
     47 H4         -11.5110     2.2070    -1.3440 h1         1 66L       0.051950
     48 H5         -11.3510    -1.4400    -1.7680 h1         1 66L       0.051950
     49 H6         -10.5150     0.0820    -2.1570 h1         1 66L       0.051950
     50 H7         -10.7900    -1.2190     0.6250 h1         1 66L       0.039700
     51 H8          -9.3110    -1.0880    -0.3360 h1         1 66L       0.039700
     52 H10         -9.0300     1.7030     2.1950 h1         1 66L       0.043200
     53 H11         -9.7100     0.1200     2.5500 h1         1 66L       0.043200
     54 H12         -7.2660     0.0700     2.6520 h1         1 66L       0.048700
     55 H13         -7.8290    -0.9810     1.3380 h1         1 66L       0.048700
     56 H14         -5.5100     2.1070    -0.9890 ha         1 66L       0.156000
     57 H15         -3.4070    -1.7510     1.1870 h4         1 66L       0.032100
     58 H16         -1.2760     1.9860    -2.8650 h4         1 66L       0.019100
     59 H17         -0.0870     0.0460    -1.8450 ha         1 66L       0.136000
     60 H18          2.7680     0.0370     1.6970 ha         1 66L       0.137000
     61 H19          0.3740    -3.5460    -0.8040 ha         1 66L       0.138000
     62 H20          2.8010    -3.7340    -0.4450 ha         1 66L       0.158000
     63 H21          4.7170    -1.0840     1.4210 hn         1 66L       0.162000
     64 H22          7.0380    -4.3420     2.1510 hc         1 66L       0.093700
     65 H23          8.5930    -3.4700     1.7500 hc         1 66L       0.093700
     66 H24          7.6940    -1.3770     2.8110 hc         1 66L       0.093700
     67 H25          6.1390    -2.2490     3.2120 hc         1 66L       0.093700
     68 H26          6.7460     0.0370     0.9280 hn         1 66L       0.156000
     69 H27          6.8900     2.2930     0.7430 ha         1 66L       0.133000
     70 H28          7.7160     4.2970    -0.4750 ha         1 66L       0.137000
     71 H29          9.7420     1.7600    -3.3080 ha         1 66L       0.137000
     72 H30          8.9350    -0.2460    -2.1230 ha         1 66L       0.133000
@<TRIPOS>BOND
     1     1     2 1   
     2     1     6 1   
     3     1    44 1   
     4     1    45 1   
     5     2     3 1   
     6     2    46 1   
     7     2    47 1   
     8     3     4 1   
     9     4     5 1   
    10     4    48 1   
    11     4    49 1   
    12     5     6 1   
    13     5    50 1   
    14     5    51 1   
    15     6     7 1   
    16     7     8 1   
    17     7    52 1   
    18     7    53 1   
    19     8     9 1   
    20     8    54 1   
    21     8    55 1   
    22     9    10 1   
    23    10    11 ar  
    24    10    12 ar  
    25    11    15 ar  
    26    11    56 1   
    27    12    13 ar  
    28    13    14 ar  
    29    13    57 1   
    30    14    15 ar  
    31    14    19 ar  
    32    15    16 ar  
    33    16    17 ar  
    34    17    18 ar  
    35    17    58 1   
    36    18    19 ar  
    37    18    59 1   
    38    19    20 1   
    39    20    21 1   
    40    21    22 ar  
    41    21    25 ar  
    42    22    23 1   
    43    22    24 ar  
    44    24    27 ar  
    45    24    60 1   
    46    25    26 ar  
    47    25    61 1   
    48    26    27 ar  
    49    26    62 1   
    50    27    28 1   
    51    28    29 1   
    52    28    63 1   
    53    29    30 2   
    54    29    31 1   
    55    31    32 1   
    56    31    33 1   
    57    31    34 1   
    58    32    33 1   
    59    32    64 1   
    60    32    65 1   
    61    33    66 1   
    62    33    67 1   
    63    34    35 2   
    64    34    36 1   
    65    36    37 1   
    66    36    68 1   
    67    37    38 ar  
    68    37    43 ar  
    69    38    39 ar  
    70    38    69 1   
    71    39    40 ar  
    72    39    70 1   
    73    40    41 1   
    74    40    42 ar  
    75    42    43 ar  
    76    42    71 1   
    77    43    72 1   
@<TRIPOS>SUBSTRUCTURE
     1 66L         1 TEMP              0 ****  ****    0 ROOT
