@<TRIPOS>MOLECULE
66L
   72    77     1     0     0
SMALL
bcc


@<TRIPOS>ATOM
      1 CAS        -11.0980     1.3120     0.0620 c6         1 66L       0.126300
      2 CAP        -11.8900     0.3300    -0.7790 c6         1 66L       0.130400
      3 OBB        -12.0680    -0.8990    -0.1100 os         1 66L      -0.404600
      4 CAQ        -10.8220    -1.4610     0.2360 c6         1 66L       0.130400
      5 CAT         -9.9990    -0.5220     1.0970 c6         1 66L       0.126300
      6 NBP         -9.8090     0.7460     0.4140 n3         1 66L      -0.705600
      7 CAU         -9.0150     1.6850     1.1780 c3         1 66L       0.163800
      8 CAR         -7.5600     1.2950     1.3100 c3         1 66L       0.153400
      9 OBC         -7.0040     1.2430    -0.0010 os         1 66L      -0.420100
     10 CBK         -5.7300     0.8900    -0.1520 ca         1 66L       0.661600
     11 CAO         -5.2230     0.8370    -1.4350 ca         1 66L      -0.336600
     12 NAX         -5.0080     0.6060     0.9390 nb         1 66L      -0.762000
     13 CAM         -3.7550     0.2530     0.7900 ca         1 66L       0.503200
     14 CBO         -3.1230     0.1570    -0.4590 ca         1 66L      -0.333600
     15 CBN         -3.8870     0.4640    -1.6130 ca         1 66L       0.478600
     16 NAY         -3.3700     0.4040    -2.8670 nb         1 66L      -0.688000
     17 CAE         -2.1210     0.0440    -2.9780 ca         1 66L       0.474200
     18 CAF         -1.2620    -0.2870    -1.9100 ca         1 66L      -0.366300
     19 CBM         -1.7690    -0.2270    -0.6400 ca         1 66L       0.216100
     20 OBD         -1.0850    -0.5180     0.4790 os         1 66L      -0.226200
     21 CBL          0.2450    -0.8400     0.3810 ca         1 66L       0.014100
     22 CBJ          1.2000     0.1630     0.3450 ca         1 66L       0.165900
     23 FAD          0.7960     1.4350     0.3530 f          1 66L      -0.120900
     24 CAN          2.5430    -0.1270     0.2990 ca         1 66L      -0.229000
     25 CAL          0.6620    -2.1560     0.3600 ca         1 66L      -0.076000
     26 CAK          2.0100    -2.4780     0.3130 ca         1 66L      -0.159000
     27 CBI          2.9630    -1.4600     0.2810 ca         1 66L       0.108600
     28 NBA          4.3430    -1.6670     0.2060 ns         1 66L      -0.469100
     29 CBF          5.0350    -2.8230     0.3900 c          1 66L       0.723100
     30 OAB          4.5090    -3.8810     0.6730 o          1 66L      -0.569100
     31 CBQ          6.5270    -2.7220     0.2350 cx         1 66L      -0.344000
     32 CAV          7.2390    -4.0090    -0.0760 cx         1 66L      -0.076400
     33 CAW          7.3420    -3.4420     1.2910 cx         1 66L      -0.076400
     34 CBE          7.1040    -1.4700    -0.3810 c          1 66L       0.699100
     35 OAA          7.3700    -1.3930    -1.5640 o          1 66L      -0.550100
     36 NAZ          7.2520    -0.4590     0.5110 ns         1 66L      -0.479100
     37 CBH          7.7490     0.8370     0.3100 ca         1 66L       0.043600
     38 CAI          7.9900     1.6000     1.4540 ca         1 66L      -0.139000
     39 CAG          8.4690     2.8950     1.3610 ca         1 66L      -0.141500
     40 CBG          8.7070     3.4250     0.1080 ca         1 66L       0.116900
     41 FAC          9.1740     4.6810     0.0090 f          1 66L      -0.139900
     42 CAH          8.4750     2.6960    -1.0390 ca         1 66L      -0.141500
     43 CAJ          7.9940     1.3970    -0.9430 ca         1 66L      -0.139000
     44 H1         -10.9460     2.2270    -0.5150 h1         1 66L       0.039700
     45 H2         -11.6840     1.5880     0.9570 h1         1 66L       0.039700
     46 H3         -12.8810     0.7340    -0.9940 h1         1 66L       0.051950
     47 H4         -11.3740     0.1730    -1.7370 h1         1 66L       0.051950
     48 H5         -11.0190    -2.3870     0.7790 h1         1 66L       0.051950
     49 H6         -10.2530    -1.7160    -0.6690 h1         1 66L       0.051950
     50 H7         -10.4910    -0.3850     2.0760 h1         1 66L       0.039700
     51 H8          -9.0350    -0.9980     1.2880 h1         1 66L       0.039700
     52 H10         -9.0730     2.6610     0.6880 h1         1 66L       0.043200
     53 H11         -9.4070     1.8280     2.1990 h1         1 66L       0.043200
     54 H12         -7.0460     2.0440     1.9190 h1         1 66L       0.048700
     55 H13         -7.4390     0.3350     1.8160 h1         1 66L       0.048700
     56 H14         -5.8380     1.0750    -2.2930 ha         1 66L       0.174000
     57 H15         -3.2100     0.0300     1.7000 h4         1 66L       0.032100
     58 H16         -1.7190    -0.0020    -3.9850 h4         1 66L       0.019100
     59 H17         -0.2440    -0.5810    -2.1240 ha         1 66L       0.154000
     60 H18          3.2580     0.6870     0.2780 ha         1 66L       0.155000
     61 H19         -0.0770    -2.9470     0.3830 ha         1 66L       0.156000
     62 H20          2.2960    -3.5160     0.2950 ha         1 66L       0.176000
     63 H21          4.8770    -0.8200     0.0890 hn         1 66L       0.328500
     64 H22          6.6260    -4.8870    -0.2270 hc         1 66L       0.093700
     65 H23          8.1010    -3.9390    -0.7250 hc         1 66L       0.093700
     66 H24          8.2760    -2.9810     1.5860 hc         1 66L       0.093700
     67 H25          6.7950    -3.9130     2.0970 hc         1 66L       0.093700
     68 H26          7.0740    -0.6990     1.4760 hn         1 66L       0.322500
     69 H27          7.8030     1.1780     2.4340 ha         1 66L       0.151000
     70 H28          8.6530     3.4770     2.2550 ha         1 66L       0.155000
     71 H29          8.6650     3.1310    -2.0120 ha         1 66L       0.155000
     72 H30          7.8160     0.8430    -1.8490 ha         1 66L       0.151000
@<TRIPOS>BOND
     1     1     2 1   
     2     1     6 1   
     3     1    44 1   
     4     1    45 1   
     5     2     3 1   
     6     2    46 1   
     7     2    47 1   
     8     3     4 1   
     9     4     5 1   
    10     4    48 1   
    11     4    49 1   
    12     5     6 1   
    13     5    50 1   
    14     5    51 1   
    15     6     7 1   
    16     7     8 1   
    17     7    52 1   
    18     7    53 1   
    19     8     9 1   
    20     8    54 1   
    21     8    55 1   
    22     9    10 1   
    23    10    11 ar  
    24    10    12 ar  
    25    11    15 ar  
    26    11    56 1   
    27    12    13 ar  
    28    13    14 ar  
    29    13    57 1   
    30    14    15 ar  
    31    14    19 ar  
    32    15    16 ar  
    33    16    17 ar  
    34    17    18 ar  
    35    17    58 1   
    36    18    19 ar  
    37    18    59 1   
    38    19    20 1   
    39    20    21 1   
    40    21    22 ar  
    41    21    25 ar  
    42    22    23 1   
    43    22    24 ar  
    44    24    27 ar  
    45    24    60 1   
    46    25    26 ar  
    47    25    61 1   
    48    26    27 ar  
    49    26    62 1   
    50    27    28 1   
    51    28    29 1   
    52    28    63 1   
    53    29    30 2   
    54    29    31 1   
    55    31    32 1   
    56    31    33 1   
    57    31    34 1   
    58    32    33 1   
    59    32    64 1   
    60    32    65 1   
    61    33    66 1   
    62    33    67 1   
    63    34    35 2   
    64    34    36 1   
    65    36    37 1   
    66    36    68 1   
    67    37    38 ar  
    68    37    43 ar  
    69    38    39 ar  
    70    38    69 1   
    71    39    40 ar  
    72    39    70 1   
    73    40    41 1   
    74    40    42 ar  
    75    42    43 ar  
    76    42    71 1   
    77    43    72 1   
@<TRIPOS>SUBSTRUCTURE
     1 66L         1 TEMP              0 ****  ****    0 ROOT
