@<TRIPOS>MOLECULE
66M
   61    63     1     0     0
SMALL
abcg2


@<TRIPOS>ATOM
      1 N1           8.2480    -0.5180    -0.5070 nb         1 66M      -0.220000
      2 C2           8.6600     1.8100     1.0090 ca         1 66M       0.443900
      3 N3           5.9750     0.3090    -0.6590 na         1 66M      -0.315300
      4 C4           5.3780     1.4390    -0.1670 cc         1 66M       0.430700
      5 C5           5.3940    -0.7530    -1.4740 c5         1 66M       0.322300
      6 C6           5.2270    -2.0410    -0.6720 c5         1 66M       0.102300
      7 C8           3.1190    -1.0890    -1.1870 c5         1 66M       0.066300
      8 C11         -1.4120    -0.5620    -0.1300 c3         1 66M      -0.096400
      9 C12         -2.6270     0.1040     0.5000 c3         1 66M      -0.077400
     10 C14         -5.1420     0.2810     0.5670 c3         1 66M      -0.166400
     11 C15         -6.4790    -0.1680     0.0140 c          1 66M       0.597100
     12 C16         -8.8760     0.2780     0.0510 c3         1 66M      -0.018300
     13 C17         -9.7710     1.4950     0.2500 c3         1 66M      -0.201400
     14 C18         -9.5190     2.6330    -0.7570 c          1 66M       0.709000
     15 C7           3.8480    -1.8120    -0.0470 c5         1 66M       0.092300
     16 N2           8.9160     2.9060     1.7280 nv         1 66M      -1.064900
     17 C9           2.0270    -0.1390    -0.7040 c          1 66M       0.595100
     18 C10         -0.1150    -0.1050     0.5240 c3         1 66M       0.094000
     19 C13         -3.9430    -0.3730    -0.1010 c3         1 66M      -0.059400
     20 N4           6.1900     2.1930     0.5160 nd         1 66M      -0.563100
     21 O14         -6.6140    -1.2120    -0.6140 o          1 66M      -0.653100
     22 N5           1.0480    -0.7600    -0.0360 ns         1 66M      -0.498900
     23 O1           2.0700     1.0630    -0.9160 o          1 66M      -0.589100
     24 O            4.1150    -0.3760    -1.8900 os         1 66M      -0.404000
     25 O15          3.1710    -2.9920     0.2820 oh         1 66M      -0.712000
     26 O16          5.1980    -3.0980    -1.5880 oh         1 66M      -0.703000
     27 C1           7.3890     1.5330     0.4710 ca         1 66M      -0.091600
     28 C            7.2780     0.3600    -0.2590 ca         1 66M       0.109500
     29 C3           9.3920    -0.1470     0.0430 ca         1 66M       0.171900
     30 N            9.6450     0.9380     0.7710 nb         1 66M      -0.309000
     31 N6          -7.5000     0.6670     0.2570 ns         1 66M      -0.414900
     32 C52         -9.3170    -0.8750     0.9870 c          1 66M       0.713000
     33 O13        -10.3790    -1.4430     0.6590 o          1 66M      -0.758000
     34 O12         -8.6140    -1.1190     1.9830 o          1 66M      -0.758000
     35 O11         -9.3440     2.3020    -1.9470 o          1 66M      -0.765500
     36 H1           4.3380     1.6580    -0.3530 h5         1 66M       0.105800
     37 H2           6.0430    -0.8940    -2.3410 h2         1 66M       0.123700
     38 H3           6.0140    -2.1670     0.0810 h1         1 66M       0.077700
     39 H4           2.6590    -1.8320    -1.8510 h1         1 66M       0.097700
     40 H5          -1.5030    -1.6490    -0.0370 hc         1 66M       0.044700
     41 H6          -1.3750    -0.3420    -1.2010 hc         1 66M       0.044700
     42 H7          -2.6290    -0.0900     1.5780 hc         1 66M       0.033200
     43 H8          -2.5460     1.1910     0.3890 hc         1 66M       0.033200
     44 H9          -5.0650     1.3710     0.4990 hc         1 66M       0.043700
     45 H10         -5.1360     0.0520     1.6390 hc         1 66M       0.043700
     46 H11         -8.9930    -0.0550    -0.9820 h1         1 66M       0.079700
     47 H12        -10.8090     1.1670     0.1410 hc         1 66M       0.027700
     48 H13         -9.6740     1.8660     1.2760 hc         1 66M       0.027700
     49 H15          3.9460    -1.1520     0.8230 h1         1 66M       0.066700
     50 H16          8.1720     3.5230     2.0030 hn         1 66M       0.502500
     51 H17          9.8080     3.0130     2.1790 hn         1 66M       0.502500
     52 H18          0.0090     0.9700     0.4090 h1         1 66M       0.055700
     53 H19         -0.1510    -0.3090     1.5980 h1         1 66M       0.055700
     54 H20         -3.9530    -0.1620    -1.1740 hc         1 66M       0.049200
     55 H21         -4.0130    -1.4590    -0.0010 hc         1 66M       0.049200
     56 H22          1.1170    -1.7590     0.0920 hn         1 66M       0.318500
     57 H23          3.3860    -3.2360     1.1880 ho         1 66M       0.521000
     58 H24          4.6940    -3.8210    -1.1960 ho         1 66M       0.525000
     59 H25         10.2360    -0.8090    -0.1160 h5         1 66M       0.040100
     60 H26         -7.3240     1.4430     0.8760 hn         1 66M       0.289500
     61 O2          -9.5430     3.7980    -0.3100 o          1 66M      -0.765500
@<TRIPOS>BOND
     1     1    28 ar  
     2     1    29 ar  
     3     2    16 1   
     4     2    27 ar  
     5     2    30 ar  
     6     3     4 1   
     7     3     5 1   
     8     3    28 1   
     9     4    20 2   
    10     4    36 1   
    11     5     6 1   
    12     5    24 1   
    13     5    37 1   
    14     6    15 1   
    15     6    26 1   
    16     6    38 1   
    17     7    15 1   
    18     7    17 1   
    19     7    24 1   
    20     7    39 1   
    21     8     9 1   
    22     8    18 1   
    23     8    40 1   
    24     8    41 1   
    25     9    19 1   
    26     9    42 1   
    27     9    43 1   
    28    10    11 1   
    29    10    19 1   
    30    10    44 1   
    31    10    45 1   
    32    11    21 2   
    33    11    31 1   
    34    12    13 1   
    35    12    31 1   
    36    12    32 1   
    37    12    46 1   
    38    13    14 1   
    39    13    47 1   
    40    13    48 1   
    41    14    35 1   
    42    14    61 1   
    43    15    25 1   
    44    15    49 1   
    45    16    50 1   
    46    16    51 1   
    47    17    22 1   
    48    17    23 2   
    49    18    22 1   
    50    18    52 1   
    51    18    53 1   
    52    19    54 1   
    53    19    55 1   
    54    20    27 1   
    55    22    56 1   
    56    25    57 1   
    57    26    58 1   
    58    27    28 ar  
    59    29    30 ar  
    60    29    59 1   
    61    31    60 1   
    62    32    33 1   
    63    32    34 1   
@<TRIPOS>SUBSTRUCTURE
     1 66M         1 TEMP              0 ****  ****    0 ROOT
