@<TRIPOS>MOLECULE
66M
   61    63     1     0     0
SMALL
No Charge or Current Charge


@<TRIPOS>ATOM
      1 N1           4.9530     1.4350    -2.0490 nb         1 66M      -0.220000
      2 C2           5.3610     3.3070    -0.0660 ca         1 66M       0.443900
      3 N3           5.3880    -0.2040    -0.2360 na         1 66M      -0.315300
      4 C4           5.7060    -0.0140     1.1170 cc         1 66M       0.430700
      5 C5           5.2780    -1.4890    -0.9440 c5         1 66M       0.322300
      6 C6           5.4660    -2.8150    -0.1310 c5         1 66M       0.102300
      7 C8           3.1050    -2.3310    -0.5260 c5         1 66M       0.066300
      8 C11         -1.1680    -1.3650     0.7460 c3         1 66M      -0.096400
      9 C12         -2.3930    -0.8330     1.5210 c3         1 66M      -0.077400
     10 C14         -4.8440    -0.0490     1.3970 c3         1 66M      -0.166400
     11 C15         -6.0460     0.1830     0.4710 c          1 66M       0.597100
     12 C16         -7.4430     2.0040    -0.6290 c3         1 66M      -0.018300
     13 C17         -6.9320     2.4790    -2.0210 c3         1 66M      -0.201400
     14 C18         -6.3570     1.3130    -2.8420 c          1 66M       0.709000
     15 C7           4.0710    -2.9230     0.5590 c5         1 66M       0.092300
     16 N2           5.5640     4.2720     0.8710 nv         1 66M      -1.064900
     17 C9           2.0610    -1.3900     0.1550 c          1 66M       0.595100
     18 C10          0.0490    -1.6280     1.6570 c3         1 66M       0.094000
     19 C13         -3.6190    -0.5790     0.6170 c3         1 66M      -0.059400
     20 N4           5.7530     1.2950     1.4340 nd         1 66M      -0.563100
     21 O14         -6.7180    -0.7400     0.0270 o          1 66M      -0.653100
     22 N5           1.1920    -2.1550     0.9100 ns         1 66M      -0.498900
     23 O1           1.9580    -0.1750     0.0460 o          1 66M      -0.589100
     24 O            3.9440    -1.6220    -1.4860 os         1 66M      -0.404000
     25 O15          3.7630    -4.2910     0.8830 oh         1 66M      -0.712000
     26 O16          5.6710    -3.9670    -0.9640 oh         1 66M      -0.703000
     27 C1           5.4530     1.9300     0.2260 ca         1 66M      -0.091600
     28 C            5.2360     1.0360    -0.7930 ca         1 66M       0.109500
     29 C3           4.8860     2.7750    -2.2400 ca         1 66M       0.171900
     30 N            5.0790     3.7380    -1.3060 nb         1 66M      -0.309000
     31 N6          -6.3420     1.5070     0.2290 ns         1 66M      -0.414900
     32 C52         -8.2400     3.1200     0.1170 c          1 66M       0.713000
     33 O13         -9.4440     2.9640     0.2760 o          1 66M      -0.758000
     34 O12         -7.6250     4.0650     0.5940 o          1 66M      -0.758000
     35 O11         -7.1270     0.6610    -3.5310 o          1 66M      -0.765500
     36 H1           5.8960    -0.8340     1.8000 h5         1 66M       0.105800
     37 H2           6.0120    -1.4370    -1.7590 h2         1 66M       0.123700
     38 H3           6.2810    -2.7290     0.6020 h1         1 66M       0.077700
     39 H4           2.5590    -3.1200    -1.0590 h1         1 66M       0.097700
     40 H5          -1.4400    -2.2970     0.2350 hc         1 66M       0.044700
     41 H6          -0.8900    -0.6420    -0.0300 hc         1 66M       0.044700
     42 H7          -2.6650    -1.5540     2.3030 hc         1 66M       0.033200
     43 H8          -2.1190     0.1010     2.0280 hc         1 66M       0.033200
     44 H9          -4.5590     0.8910     1.8860 hc         1 66M       0.043700
     45 H10         -5.1200    -0.7910     2.1550 hc         1 66M       0.043700
     46 H11         -8.1520     1.1830    -0.7940 h1         1 66M       0.079700
     47 H12         -7.8210     2.8800    -2.5230 hc         1 66M       0.027700
     48 H13         -6.1610     3.2340    -1.8260 hc         1 66M       0.027700
     49 H15          4.0460    -2.3010     1.4670 h1         1 66M       0.066700
     50 H16          5.9930     3.9750     1.7440 hn         1 66M       0.502500
     51 H17          5.7800     5.2130     0.5530 hn         1 66M       0.502500
     52 H18          0.3450    -0.6960     2.1580 h1         1 66M       0.055700
     53 H19         -0.2260    -2.3550     2.4330 h1         1 66M       0.055700
     54 H20         -3.3490     0.1420    -0.1650 hc         1 66M       0.049200
     55 H21         -3.8910    -1.5130     0.1080 hc         1 66M       0.049200
     56 H22          1.3720    -3.1540     0.9410 hn         1 66M       0.318500
     57 H23          4.0690    -4.4610     1.8080 ho         1 66M       0.521000
     58 H24          4.9920    -4.6080    -0.6290 ho         1 66M       0.525000
     59 H25          4.6570     3.1120    -3.2490 h5         1 66M       0.040100
     60 H26         -5.7470     2.1940     0.6770 hn         1 66M       0.289500
     61 O2          -5.1560     1.0990    -2.7880 o          1 66M      -0.765500
@<TRIPOS>BOND
     1     1    28 ar  
     2     1    29 ar  
     3     2    16 1   
     4     2    27 ar  
     5     2    30 ar  
     6     3     4 1   
     7     3     5 1   
     8     3    28 1   
     9     4    20 2   
    10     4    36 1   
    11     5     6 1   
    12     5    24 1   
    13     5    37 1   
    14     6    15 1   
    15     6    26 1   
    16     6    38 1   
    17     7    15 1   
    18     7    17 1   
    19     7    24 1   
    20     7    39 1   
    21     8     9 1   
    22     8    18 1   
    23     8    40 1   
    24     8    41 1   
    25     9    19 1   
    26     9    42 1   
    27     9    43 1   
    28    10    11 1   
    29    10    19 1   
    30    10    44 1   
    31    10    45 1   
    32    11    21 2   
    33    11    31 1   
    34    12    13 1   
    35    12    31 1   
    36    12    32 1   
    37    12    46 1   
    38    13    14 1   
    39    13    47 1   
    40    13    48 1   
    41    14    35 1   
    42    14    61 1   
    43    15    25 1   
    44    15    49 1   
    45    16    50 1   
    46    16    51 1   
    47    17    22 1   
    48    17    23 2   
    49    18    22 1   
    50    18    52 1   
    51    18    53 1   
    52    19    54 1   
    53    19    55 1   
    54    20    27 1   
    55    22    56 1   
    56    25    57 1   
    57    26    58 1   
    58    27    28 ar  
    59    29    30 ar  
    60    29    59 1   
    61    31    60 1   
    62    32    33 1   
    63    32    34 1   
@<TRIPOS>SUBSTRUCTURE
     1 66M         1 TEMP              0 ****  ****    0 ROOT
