@<TRIPOS>MOLECULE
66N
   14    13     1     0     0
SMALL
abcg2


@<TRIPOS>ATOM
      1 O3           1.0450     1.0720    -0.7730 o          1 66N      -0.576100
      2 N11         -1.5160     0.9860     0.1820 n8         1 66N      -0.975200
      3 C33         -0.6810    -0.1840     0.3620 c3         1 66N       0.086500
      4 C35         -1.2100    -1.3260    -0.5050 c3         1 66N      -0.089100
      5 C34          0.7540     0.1340    -0.0490 c          1 66N       0.599100
      6 N12          1.6660    -0.7210     0.4430 nt         1 66N      -0.619000
      7 H1          -2.4540     0.7630     0.4900 hn         1 66N       0.400500
      8 H2          -1.2000     1.7390     0.7800 hn         1 66N       0.400500
      9 H4          -0.6530    -0.5400     1.4030 h1         1 66N       0.015700
     10 H5          -2.2420    -1.5540    -0.2330 hc         1 66N       0.044700
     11 H6          -1.1910    -1.0500    -1.5610 hc         1 66N       0.044700
     12 H7          -0.6260    -2.2360    -0.3740 hc         1 66N       0.044700
     13 H8           2.6320    -0.6520     0.1710 hn         1 66N       0.311000
     14 H9           1.4050    -1.4940     1.0310 hn         1 66N       0.311000
@<TRIPOS>BOND
     1     1     5 2   
     2     2     3 1   
     3     2     7 1   
     4     2     8 1   
     5     3     4 1   
     6     3     5 1   
     7     3     9 1   
     8     4    10 1   
     9     4    11 1   
    10     4    12 1   
    11     5     6 1   
    12     6    13 1   
    13     6    14 1   
@<TRIPOS>SUBSTRUCTURE
     1 66N         1 TEMP              0 ****  ****    0 ROOT
