@<TRIPOS>MOLECULE
66N
   14    13     1     0     0
SMALL
No Charge or Current Charge


@<TRIPOS>ATOM
      1 O3           1.2550     1.2570    -0.3680 o          1 66N      -0.576100
      2 N11         -1.6450     1.0160     0.1000 n8         1 66N      -0.975200
      3 C33         -0.6880    -0.1160     0.3350 c3         1 66N       0.086500
      4 C35         -1.1940    -1.3700    -0.4160 c3         1 66N      -0.089100
      5 C34          0.8360     0.1820     0.0360 c          1 66N       0.599100
      6 N12          1.7090    -0.8310     0.2570 nt         1 66N      -0.619000
      7 H1          -2.5600     0.7790     0.5000 hn         1 66N       0.400500
      8 H2          -1.3430     1.8320     0.6470 hn         1 66N       0.400500
      9 H4          -0.7390    -0.3420     1.4090 h1         1 66N       0.015700
     10 H5          -2.2470    -1.5690    -0.1820 hc         1 66N       0.044700
     11 H6          -1.1020    -1.2370    -1.5010 hc         1 66N       0.044700
     12 H7          -0.6200    -2.2600    -0.1300 hc         1 66N       0.044700
     13 H8           2.6920    -0.6830     0.0810 hn         1 66N       0.311000
     14 H9           1.3770    -1.7210     0.5990 hn         1 66N       0.311000
@<TRIPOS>BOND
     1     1     5 2   
     2     2     3 1   
     3     2     7 1   
     4     2     8 1   
     5     3     4 1   
     6     3     5 1   
     7     3     9 1   
     8     4    10 1   
     9     4    11 1   
    10     4    12 1   
    11     5     6 1   
    12     6    13 1   
    13     6    14 1   
@<TRIPOS>SUBSTRUCTURE
     1 66N         1 TEMP              0 ****  ****    0 ROOT
