@<TRIPOS>MOLECULE
66O
   23    23     1     0     0
SMALL
No Charge or Current Charge


@<TRIPOS>ATOM
      1 C1          32.2050    27.2020    -1.3770 c6         1 66O       0.396300
      2 C2          33.3930    26.1810    -1.1550 c6         1 66O       0.163300
      3 C3          34.5590    26.7830    -0.2920 c6         1 66O       0.143300
      4 C4          33.9790    27.4790     0.9850 c6         1 66O       0.110300
      5 C5          32.9070    28.5260     0.5450 c6         1 66O       0.145300
      6 C6          32.2750    29.2980     1.7320 c3         1 66O      -0.094100
      7 O2          33.9040    25.6560    -2.4010 oh         1 66O      -0.687000
      8 O3          35.3620    27.7000    -1.0700 oh         1 66O      -0.679000
      9 O4          33.3800    26.4960     1.8540 oh         1 66O      -0.716000
     10 O5          31.8270    27.8400    -0.1380 os         1 66O      -0.482000
     11 O1          32.5190    28.2470    -2.2990 oh         1 66O      -0.700000
     12 H1          31.3400    26.6390    -1.7600 h2         1 66O       0.065700
     13 H2          32.9680    25.3470    -0.5780 h1         1 66O       0.057700
     14 H3          35.1940    25.9470     0.0390 h1         1 66O       0.040700
     15 H4          34.7940    27.9940     1.5130 h1         1 66O       0.031700
     16 H5          33.3660    29.2670    -0.1270 h1         1 66O       0.063700
     17 H61         33.0440    29.8180     2.3140 hc         1 66O       0.044033
     18 H62         31.5680    30.0550     1.3710 hc         1 66O       0.044033
     19 H63         31.7310    28.6320     2.4130 hc         1 66O       0.044033
     20 HO2         34.4170    26.4120    -2.7750 ho         1 66O       0.501000
     21 HO3         36.1890    27.8650    -0.5600 ho         1 66O       0.494000
     22 HO4         32.4100    26.5370     1.6750 ho         1 66O       0.509000
     23 HO1         31.7760    28.8810    -2.2080 ho         1 66O       0.505000
@<TRIPOS>BOND
     1     1     2 1   
     2     1    10 1   
     3     1    11 1   
     4     1    12 1   
     5     2     3 1   
     6     2     7 1   
     7     2    13 1   
     8     3     4 1   
     9     3     8 1   
    10     3    14 1   
    11     4     5 1   
    12     4     9 1   
    13     4    15 1   
    14     5     6 1   
    15     5    10 1   
    16     5    16 1   
    17     6    17 1   
    18     6    18 1   
    19     6    19 1   
    20     7    20 1   
    21     8    21 1   
    22     9    22 1   
    23    11    23 1   
@<TRIPOS>SUBSTRUCTURE
     1 66O         1 TEMP              0 ****  ****    0 ROOT
