@<TRIPOS>MOLECULE
66O
   23    23     1     0     0
SMALL
bcc


@<TRIPOS>ATOM
      1 C1          32.2630    27.3640    -1.4660 c6         1 66O       0.349900
      2 C2          33.3950    26.3650    -1.2380 c6         1 66O       0.140100
      3 C3          34.5250    26.9340    -0.3810 c6         1 66O       0.120100
      4 C4          33.9400    27.5320     0.9040 c6         1 66O       0.087100
      5 C5          32.8240    28.5150     0.5550 c6         1 66O       0.122100
      6 C6          32.1330    29.0880     1.7760 c3         1 66O      -0.094100
      7 O2          33.8310    25.8980    -2.4880 oh         1 66O      -0.564800
      8 O3          35.2310    27.9040    -1.1110 oh         1 66O      -0.556800
      9 O4          33.4960    26.4560     1.7000 oh         1 66O      -0.593800
     10 O5          31.8260    27.8840    -0.2380 os         1 66O      -0.435600
     11 O1          32.6690    28.3500    -2.3570 oh         1 66O      -0.577800
     12 H1          31.3910    26.8250    -1.8580 h2         1 66O       0.065700
     13 H2          32.9500    25.5500    -0.6520 h1         1 66O       0.057700
     14 H3          35.1880    26.1000    -0.1020 h1         1 66O       0.040700
     15 H4          34.7340    28.0940     1.4180 h1         1 66O       0.031700
     16 H5          33.2830    29.3410    -0.0010 h1         1 66O       0.063700
     17 H61         32.8590    29.5780     2.4260 hc         1 66O       0.044033
     18 H62         31.3950    29.8370     1.4880 hc         1 66O       0.044033
     19 H63         31.6180    28.3210     2.3560 hc         1 66O       0.044033
     20 HO2         34.3770    25.1190    -2.3420 ho         1 66O       0.402000
     21 HO3         36.0180    28.1350    -0.6080 ho         1 66O       0.395000
     22 HO4         33.2720    26.7840     2.5750 ho         1 66O       0.410000
     23 HO1         31.8880    28.8280    -2.6550 ho         1 66O       0.406000
@<TRIPOS>BOND
     1     1     2 1   
     2     1    10 1   
     3     1    11 1   
     4     1    12 1   
     5     2     3 1   
     6     2     7 1   
     7     2    13 1   
     8     3     4 1   
     9     3     8 1   
    10     3    14 1   
    11     4     5 1   
    12     4     9 1   
    13     4    15 1   
    14     5     6 1   
    15     5    10 1   
    16     5    16 1   
    17     6    17 1   
    18     6    18 1   
    19     6    19 1   
    20     7    20 1   
    21     8    21 1   
    22     9    22 1   
    23    11    23 1   
@<TRIPOS>SUBSTRUCTURE
     1 66O         1 TEMP              0 ****  ****    0 ROOT
