@<TRIPOS>MOLECULE
66P
   45    48     1     0     0
SMALL
abcg2


@<TRIPOS>ATOM
      1 C2          -1.0480    -1.5630    -0.2600 cc         1 66P       0.335000
      2 C3          -1.9410    -2.6790    -0.2340 cc         1 66P      -0.357000
      3 N4           0.9860     0.5620    -0.2450 nc         1 66P      -0.679100
      4 C5          -2.8780     0.0320    -0.8100 c6         1 66P       0.237500
      5 C7          -2.4260     2.5320    -0.7300 c6         1 66P      -0.079400
      6 C9          -3.2500     1.3600     1.3160 c6         1 66P      -0.079400
      7 C10         -3.7070     0.1780     0.4690 c6         1 66P      -0.088400
      8 C11          1.2840    -0.7080    -0.0280 cd         1 66P       0.539100
      9 C12          3.2200     0.3470     0.0760 ca         1 66P      -0.080200
     10 C13          2.1710     1.2450    -0.1880 ca         1 66P       0.092400
     11 C15          3.7570     3.0200    -0.2400 ca         1 66P      -0.131000
     12 C            0.8090    -3.1210     0.2570 c          1 66P       0.590200
     13 C1           0.3290    -1.7970    -0.0080 cd         1 66P      -0.432800
     14 N1          -1.5020    -0.3420    -0.5300 nu         1 66P      -0.796200
     15 C8          -3.2820     2.6630     0.5240 c6         1 66P       0.165500
     16 N2          -2.7880     3.7560     1.3500 n8         1 66P      -0.992200
     17 C6          -2.8700     1.3480    -1.5870 c6         1 66P      -0.088400
     18 C4          -1.4530    -3.9130     0.0180 cd         1 66P       0.006600
     19 N           -0.1430    -4.1200     0.2510 ns         1 66P      -0.369100
     20 C14          2.4410     2.6030    -0.3480 ca         1 66P      -0.068000
     21 C16          4.7920     2.1110     0.0230 ca         1 66P      -0.109000
     22 C17          4.5420     0.7580     0.1860 ca         1 66P      -0.106000
     23 N3           2.6190    -0.8770     0.1710 na         1 66P      -0.298600
     24 H1          -2.9980    -2.5620    -0.4120 ha         1 66P       0.201000
     25 H3          -3.3290    -0.7340    -1.4470 h1         1 66P       0.052700
     26 H4          -2.4870     3.4480    -1.3240 hc         1 66P       0.056700
     27 H5          -1.3750     2.4340    -0.4320 hc         1 66P       0.056700
     28 H6          -3.8910     1.4440     2.1980 hc         1 66P       0.056700
     29 H7          -2.2320     1.1920     1.6850 hc         1 66P       0.056700
     30 H8          -4.7540     0.3130     0.1790 hc         1 66P       0.049450
     31 H9          -3.6690    -0.7430     1.0560 hc         1 66P       0.049450
     32 H10          3.9940     4.0690    -0.3600 ha         1 66P       0.108000
     33 H12         -0.7920     0.3910    -0.5140 hn         1 66P       0.560000
     34 H13         -4.3230     2.8250     0.1960 h1         1 66P       0.007700
     35 H14         -2.8360     4.6220     0.8270 hn         1 66P       0.393000
     36 H15         -3.4080     3.8840     2.1410 hn         1 66P       0.393000
     37 H17         -2.2330     1.2540    -2.4690 hc         1 66P       0.049450
     38 H18         -3.8840     1.5280    -1.9560 hc         1 66P       0.049450
     39 H19         -2.0850    -4.7880     0.0460 h4         1 66P       0.198000
     40 H20          1.6430     3.3070    -0.5500 ha         1 66P       0.120000
     41 H21          5.8090     2.4740     0.0990 ha         1 66P       0.108000
     42 H22          5.3420     0.0570     0.3880 ha         1 66P       0.117000
     43 H2           0.1820    -5.0580     0.4380 hn         1 66P       0.331500
     44 H11          3.0310    -1.7800     0.3620 hn         1 66P       0.393000
     45 O            1.9850    -3.4350     0.4840 o          1 66P      -0.618000
@<TRIPOS>BOND
     1     1     2 1   
     2     1    13 2   
     3     1    14 1   
     4     2    18 2   
     5     2    24 1   
     6     3     8 2   
     7     3    10 1   
     8     4     7 1   
     9     4    14 1   
    10     4    17 1   
    11     4    25 1   
    12     5    15 1   
    13     5    17 1   
    14     5    26 1   
    15     5    27 1   
    16     6     7 1   
    17     6    15 1   
    18     6    28 1   
    19     6    29 1   
    20     7    30 1   
    21     7    31 1   
    22     8    13 1   
    23     8    23 1   
    24     9    10 ar  
    25     9    22 ar  
    26     9    23 1   
    27    10    20 ar  
    28    11    20 ar  
    29    11    21 ar  
    30    11    32 1   
    31    12    13 1   
    32    12    19 1   
    33    12    45 2   
    34    14    33 1   
    35    15    16 1   
    36    15    34 1   
    37    16    35 1   
    38    16    36 1   
    39    17    37 1   
    40    17    38 1   
    41    18    19 1   
    42    18    39 1   
    43    19    43 1   
    44    20    40 1   
    45    21    22 ar  
    46    21    41 1   
    47    22    42 1   
    48    23    44 1   
@<TRIPOS>SUBSTRUCTURE
     1 66P         1 TEMP              0 ****  ****    0 ROOT
