@<TRIPOS>MOLECULE
66P
   45    48     1     0     0
SMALL
No Charge or Current Charge


@<TRIPOS>ATOM
      1 C2          -1.0810    -1.6430    -0.5950 cc         1 66P       0.335000
      2 C3          -1.9540    -2.7800    -0.6380 cc         1 66P      -0.357000
      3 N4           0.8450     0.5830    -0.5500 nc         1 66P      -0.679100
      4 C5          -2.9860    -0.0090    -0.9080 c6         1 66P       0.237500
      5 C7          -2.4510     2.5260    -0.8960 c6         1 66P      -0.079400
      6 C9          -2.6120     1.2630     1.3140 c6         1 66P      -0.079400
      7 C10         -3.3520     0.0990     0.6020 c6         1 66P      -0.088400
      8 C11          1.1140    -0.6570    -0.0800 cd         1 66P       0.539100
      9 C12          2.9500     0.4700     0.2850 ca         1 66P      -0.080200
     10 C13          2.0180     1.2720    -0.3020 ca         1 66P       0.092400
     11 C15          3.5810     3.1170    -0.2410 ca         1 66P      -0.131000
     12 C            0.6330    -3.1150     0.4310 c          1 66P       0.590200
     13 C1           0.2080    -1.7910    -0.0920 cd         1 66P      -0.432800
     14 N1          -1.6000    -0.4750    -1.0930 nu         1 66P      -0.796200
     15 C8          -2.8710     2.6080     0.5920 c6         1 66P       0.165500
     16 N2          -2.1680     3.7090     1.2720 n8         1 66P      -0.992200
     17 C6          -3.1750     1.3580    -1.6210 c6         1 66P      -0.088400
     18 C4          -1.5610    -4.0030    -0.1630 cd         1 66P       0.006600
     19 N           -0.2970    -4.1120     0.3550 ns         1 66P      -0.369100
     20 C14          2.3050     2.6160    -0.5820 ca         1 66P      -0.068000
     21 C16          4.5400     2.2740     0.3680 ca         1 66P      -0.109000
     22 C17          4.2270     0.9250     0.6400 ca         1 66P      -0.106000
     23 N3           2.4060    -0.7720     0.4390 na         1 66P      -0.298600
     24 H1          -2.9450    -2.6830    -1.0630 ha         1 66P       0.201000
     25 H3          -3.6800    -0.7160    -1.3840 h1         1 66P       0.052700
     26 H4          -2.6880     3.4710    -1.4050 hc         1 66P       0.056700
     27 H5          -1.3630     2.3990    -0.9740 hc         1 66P       0.056700
     28 H6          -2.9490     1.3250     2.3580 hc         1 66P       0.056700
     29 H7          -1.5330     1.0540     1.3470 hc         1 66P       0.056700
     30 H8          -4.4350     0.2590     0.6910 hc         1 66P       0.049450
     31 H9          -3.1480    -0.8480     1.1180 hc         1 66P       0.049450
     32 H10          3.8270     4.1560    -0.4480 ha         1 66P       0.108000
     33 H12         -0.8780     0.2550    -1.0650 hn         1 66P       0.560000
     34 H13         -3.9460     2.8380     0.6460 h1         1 66P       0.007700
     35 H14         -2.4410     4.5940     0.8310 hn         1 66P       0.393000
     36 H15         -2.5370     3.7940     2.2260 hn         1 66P       0.393000
     37 H17         -2.8330     1.2900    -2.6630 hc         1 66P       0.049450
     38 H18         -4.2500     1.5830    -1.6710 hc         1 66P       0.049450
     39 H19         -2.1610    -4.9110    -0.1590 h4         1 66P       0.198000
     40 H20          1.5610     3.2550    -1.0490 ha         1 66P       0.120000
     41 H21          5.5210     2.6650     0.6280 ha         1 66P       0.108000
     42 H22          4.9530     0.2640     1.1080 ha         1 66P       0.117000
     43 H2           0.0250    -5.0020     0.7180 hn         1 66P       0.331500
     44 H11          2.8040    -1.6150     0.8330 hn         1 66P       0.393000
     45 O            1.7310    -3.3530     0.9080 o          1 66P      -0.618000
@<TRIPOS>BOND
     1     1     2 1   
     2     1    13 2   
     3     1    14 1   
     4     2    18 2   
     5     2    24 1   
     6     3     8 2   
     7     3    10 1   
     8     4     7 1   
     9     4    14 1   
    10     4    17 1   
    11     4    25 1   
    12     5    15 1   
    13     5    17 1   
    14     5    26 1   
    15     5    27 1   
    16     6     7 1   
    17     6    15 1   
    18     6    28 1   
    19     6    29 1   
    20     7    30 1   
    21     7    31 1   
    22     8    13 1   
    23     8    23 1   
    24     9    10 ar  
    25     9    22 ar  
    26     9    23 1   
    27    10    20 ar  
    28    11    20 ar  
    29    11    21 ar  
    30    11    32 1   
    31    12    13 1   
    32    12    19 1   
    33    12    45 2   
    34    14    33 1   
    35    15    16 1   
    36    15    34 1   
    37    16    35 1   
    38    16    36 1   
    39    17    37 1   
    40    17    38 1   
    41    18    19 1   
    42    18    39 1   
    43    19    43 1   
    44    20    40 1   
    45    21    22 ar  
    46    21    41 1   
    47    22    42 1   
    48    23    44 1   
@<TRIPOS>SUBSTRUCTURE
     1 66P         1 TEMP              0 ****  ****    0 ROOT
