@<TRIPOS>MOLECULE
66R
   68    73     1     0     0
SMALL
No Charge or Current Charge


@<TRIPOS>ATOM
      1 C01         -7.2880    -0.4050     0.1750 ca         1 66R      -0.142000
      2 C02         -6.1360    -0.5900    -0.6200 ca         1 66R       0.243000
      3 C03         -6.1260    -1.6650    -1.5510 ca         1 66R       0.153000
      4 C04         -7.2360    -2.5210    -1.6730 ca         1 66R      -0.139000
      5 C05         -8.3710    -2.3210    -0.8710 ca         1 66R      -0.114000
      6 C06         -8.3960    -1.2630     0.0520 ca         1 66R      -0.110000
      7 F07         -5.0570    -1.8790    -2.3580 f          1 66R      -0.172000
      8 N08         -5.0230     0.2870    -0.4790 nh         1 66R      -0.770400
      9 C09         -5.2090     1.7300    -0.1290 c6         1 66R       0.188800
     10 C10         -3.9840     2.6070    -0.5460 c6         1 66R       0.163800
     11 N11         -2.6870     2.0880    -0.0140 n3         1 66R      -0.714600
     12 C12         -2.5060     0.6600    -0.4260 c6         1 66R       0.163800
     13 C13         -3.7070    -0.2500    -0.0100 c6         1 66R       0.188800
     14 C14         -1.5420     2.9610    -0.3720 c3         1 66R       0.231100
     15 C15         -0.2240     2.5550     0.2850 ca         1 66R      -0.134300
     16 C16          0.1010     2.9800     1.5930 ca         1 66R       0.148100
     17 C17          1.3310     2.5870     2.1670 ca         1 66R      -0.214000
     18 C18          2.2280     1.7840     1.4440 ca         1 66R      -0.067000
     19 C19          1.9130     1.3630     0.1380 ca         1 66R      -0.110300
     20 C20          0.6880     1.7560    -0.4350 ca         1 66R      -0.052000
     21 C21          2.8860     0.4810    -0.6540 c6         1 66R       0.280000
     22 C22          3.3460    -0.7240     0.1450 cc         1 66R      -0.084300
     23 C23          4.6460    -1.2020     0.2210 cd         1 66R      -0.108400
     24 C24          5.7730    -0.4950    -0.4970 c6         1 66R      -0.025200
     25 C25          5.2360     0.4700    -1.5960 c6         1 66R       0.023500
     26 N26          4.0680     1.2890    -1.0680 n7         1 66R      -0.809400
     27 C27          5.0470    -0.2900    -2.9820 c          1 66R       0.727000
     28 O28          3.9310    -0.6930    -3.2900 o          1 66R      -0.723500
     29 O29          5.8800    -0.0450    -3.8460 o          1 66R      -0.723500
     30 C30          4.6810    -2.3720     1.0640 ca         1 66R      -0.079800
     31 C31          3.3930    -2.5790     1.4780 ca         1 66R      -0.050200
     32 N32          2.5750    -1.6020     0.9360 na         1 66R      -0.220700
     33 C33          3.0570    -3.6450     2.3230 ca         1 66R      -0.138000
     34 C34          4.0950    -4.5090     2.7390 ca         1 66R      -0.111000
     35 C35          5.4270    -4.2910     2.3080 ca         1 66R      -0.163000
     36 C36          5.7350    -3.2070     1.4560 ca         1 66R      -0.052000
     37 O37         -0.7980     3.7790     2.2760 os         1 66R      -0.333100
     38 C38         -0.5570     4.2420     3.6160 c3         1 66R       0.151900
     39 H1          -7.3260     0.3990     0.9040 ha         1 66R       0.116000
     40 H2          -7.2130    -3.3360    -2.3920 ha         1 66R       0.127000
     41 H3          -9.2290    -2.9830    -0.9640 ha         1 66R       0.112000
     42 H4          -9.2740    -1.1080     0.6750 ha         1 66R       0.110000
     43 H5          -6.1060     2.1280    -0.6250 h1         1 66R       0.041200
     44 H6          -5.3600     1.8320     0.9560 h1         1 66R       0.041200
     45 H7          -3.9480     2.6500    -1.6450 h1         1 66R       0.043200
     46 H8          -4.1570     3.6340    -0.1930 h1         1 66R       0.043200
     47 H10         -2.3840     0.5960    -1.5180 h1         1 66R       0.043200
     48 H11         -1.5940     0.2410     0.0220 h1         1 66R       0.043200
     49 H12         -3.7170    -0.3370     1.0860 h1         1 66R       0.041200
     50 H13         -3.5320    -1.2590    -0.4100 h1         1 66R       0.041200
     51 H14         -1.4070     2.9660    -1.4630 h1         1 66R       0.039200
     52 H15         -1.7650     3.9990    -0.0870 h1         1 66R       0.039200
     53 H16          1.6100     2.8950     3.1700 ha         1 66R       0.108000
     54 H17          3.1700     1.4870     1.9010 ha         1 66R       0.121000
     55 H18          0.4400     1.4360    -1.4450 ha         1 66R       0.130000
     56 H19          2.3620     0.1170    -1.5510 h1         1 66R       0.118700
     57 H20          6.3570     0.0820     0.2320 hc         1 66R       0.043700
     58 H21          6.4710    -1.2180    -0.9400 hc         1 66R       0.043700
     59 H22          6.0490     1.1830    -1.7960 h1         1 66R       0.046700
     60 H23          4.3880     1.7830    -0.2310 hn         1 66R       0.369000
     61 H26          1.5760    -1.5260     1.0910 hn         1 66R       0.341000
     62 H27          2.0320    -3.8030     2.6480 ha         1 66R       0.098000
     63 H28          3.8690    -5.3460     3.3940 ha         1 66R       0.091000
     64 H29          6.2180    -4.9620     2.6340 ha         1 66R       0.095000
     65 H30          6.7530    -3.0260     1.1180 ha         1 66R       0.112000
     66 H31         -1.3990     4.8530     3.9630 h1         1 66R       0.033033
     67 H32         -0.4440     3.3950     4.3060 h1         1 66R       0.033033
     68 H33          0.3510     4.8570     3.6590 h1         1 66R       0.033033
@<TRIPOS>BOND
     1     1     2 ar  
     2     1     6 ar  
     3     1    39 1   
     4     2     3 ar  
     5     2     8 1   
     6     3     4 ar  
     7     3     7 1   
     8     4     5 ar  
     9     4    40 1   
    10     5     6 ar  
    11     5    41 1   
    12     6    42 1   
    13     8     9 1   
    14     8    13 1   
    15     9    10 1   
    16     9    43 1   
    17     9    44 1   
    18    10    11 1   
    19    10    45 1   
    20    10    46 1   
    21    11    12 1   
    22    11    14 1   
    23    12    13 1   
    24    12    47 1   
    25    12    48 1   
    26    13    49 1   
    27    13    50 1   
    28    14    15 1   
    29    14    51 1   
    30    14    52 1   
    31    15    16 ar  
    32    15    20 ar  
    33    16    17 ar  
    34    16    37 1   
    35    17    18 ar  
    36    17    53 1   
    37    18    19 ar  
    38    18    54 1   
    39    19    20 ar  
    40    19    21 1   
    41    20    55 1   
    42    21    22 1   
    43    21    26 1   
    44    21    56 1   
    45    22    23 2   
    46    22    32 1   
    47    23    24 1   
    48    23    30 1   
    49    24    25 1   
    50    24    57 1   
    51    24    58 1   
    52    25    26 1   
    53    25    27 1   
    54    25    59 1   
    55    26    60 1   
    56    27    28 1   
    57    27    29 1   
    58    30    31 ar  
    59    30    36 ar  
    60    31    32 1   
    61    31    33 ar  
    62    32    61 1   
    63    33    34 ar  
    64    33    62 1   
    65    34    35 ar  
    66    34    63 1   
    67    35    36 ar  
    68    35    64 1   
    69    36    65 1   
    70    37    38 1   
    71    38    66 1   
    72    38    67 1   
    73    38    68 1   
@<TRIPOS>SUBSTRUCTURE
     1 66R         1 TEMP              0 ****  ****    0 ROOT
