@<TRIPOS>MOLECULE
66R
   68    73     1     0     0
SMALL
bcc


@<TRIPOS>ATOM
      1 C01         -7.2960     0.0570     0.2810 ca         1 66R      -0.160000
      2 C02         -6.2130    -0.3290    -0.5110 ca         1 66R       0.104600
      3 C03         -6.3650    -1.5170    -1.2330 ca         1 66R       0.117900
      4 C04         -7.4980    -2.2970    -1.1670 ca         1 66R      -0.157000
      5 C05         -8.5610    -1.8860    -0.3710 ca         1 66R      -0.132000
      6 C06         -8.4570    -0.7040     0.3440 ca         1 66R      -0.128000
      7 F07         -5.3650    -1.9080    -2.0440 f          1 66R      -0.136900
      8 N08         -5.0390     0.4200    -0.6440 nh         1 66R      -0.632000
      9 C09         -5.1180     1.8250    -0.2930 c6         1 66R       0.188800
     10 C10         -3.8830     2.5460    -0.8000 c6         1 66R       0.163800
     11 N11         -2.6810     1.9620    -0.2440 n3         1 66R      -0.714600
     12 C12         -2.6030     0.5570    -0.5870 c6         1 66R       0.163800
     13 C13         -3.8300    -0.1810    -0.0900 c6         1 66R       0.188800
     14 C14         -1.4990     2.7020    -0.6460 c3         1 66R       0.231100
     15 C15         -0.2680     2.2790     0.1050 ca         1 66R      -0.134300
     16 C16         -0.1130     2.5840     1.4660 ca         1 66R       0.148100
     17 C17          1.0300     2.1630     2.1430 ca         1 66R      -0.232000
     18 C18          2.0120     1.4440     1.4740 ca         1 66R      -0.085000
     19 C19          1.8840     1.1360     0.1270 ca         1 66R      -0.110300
     20 C20          0.7360     1.5670    -0.5310 ca         1 66R      -0.070000
     21 C21          2.9680     0.4030    -0.6250 c6         1 66R       0.280000
     22 C22          3.5300    -0.7450     0.1510 cc         1 66R      -0.084300
     23 C23          4.8600    -0.9880     0.3270 cd         1 66R      -0.108400
     24 C24          5.9120    -0.1060    -0.2530 c6         1 66R      -0.025200
     25 C25          5.2900     0.7180    -1.3920 c6         1 66R       0.023500
     26 N26          4.0260     1.3390    -1.0060 n7         1 66R      -0.754200
     27 C27          5.1760    -0.1060    -2.7000 c          1 66R       0.937600
     28 O28          4.1360     0.0070    -3.3760 o          1 66R      -0.828800
     29 O29          6.1750    -0.7940    -2.9920 o          1 66R      -0.828800
     30 C30          4.9580    -2.1980     1.0850 ca         1 66R      -0.079800
     31 C31          3.6340    -2.6360     1.3290 ca         1 66R      -0.050200
     32 N32          2.7900    -1.7360     0.7420 na         1 66R      -0.170400
     33 C33          3.3610    -3.7980     2.0460 ca         1 66R      -0.156000
     34 C34          4.4370    -4.5290     2.5180 ca         1 66R      -0.129000
     35 C35          5.7580    -4.1150     2.2830 ca         1 66R      -0.181000
     36 C36          6.0260    -2.9580     1.5730 ca         1 66R      -0.070000
     37 O37         -1.1040     3.2910     2.0390 os         1 66R      -0.309900
     38 C38         -0.9830     3.6510     3.3990 c3         1 66R       0.128700
     39 H1          -7.2340     0.9660     0.8650 ha         1 66R       0.134000
     40 H2          -7.5560    -3.2060    -1.7530 ha         1 66R       0.145000
     41 H3          -9.4600    -2.4850    -0.3230 ha         1 66R       0.130000
     42 H4          -9.2770    -0.3700     0.9670 ha         1 66R       0.128000
     43 H5          -6.0020     2.2650    -0.7570 h1         1 66R       0.041200
     44 H6          -5.2010     1.9780     0.7940 h1         1 66R       0.041200
     45 H7          -3.8840     2.5190    -1.9040 h1         1 66R       0.043200
     46 H8          -3.9430     3.5960    -0.5040 h1         1 66R       0.043200
     47 H10         -2.5070     0.4070    -1.6770 h1         1 66R       0.043200
     48 H11         -1.7210     0.1150    -0.1210 h1         1 66R       0.043200
     49 H12         -3.8520    -0.1480     1.0090 h1         1 66R       0.041200
     50 H13         -3.7550    -1.2260    -0.3810 h1         1 66R       0.041200
     51 H14         -1.3060     2.5980    -1.7280 h1         1 66R       0.039200
     52 H15         -1.6940     3.7640    -0.4700 h1         1 66R       0.039200
     53 H16          1.1720     2.3850     3.1920 ha         1 66R       0.126000
     54 H17          2.8870     1.1190     2.0250 ha         1 66R       0.139000
     55 H18          0.6120     1.3310    -1.5830 ha         1 66R       0.148000
     56 H19          2.5260     0.0120    -1.5470 h1         1 66R       0.118700
     57 H20          6.3240     0.5640     0.5110 hc         1 66R       0.043700
     58 H21          6.7540    -0.6870    -0.6310 hc         1 66R       0.043700
     59 H22          5.9740     1.5450    -1.6200 h1         1 66R       0.046700
     60 H23          4.2040     1.9560    -0.2210 hn         1 66R       0.313800
     61 H26          1.7850    -1.7680     0.7810 hn         1 66R       0.290700
     62 H27          2.3430    -4.1230     2.2260 ha         1 66R       0.116000
     63 H28          4.2560    -5.4380     3.0770 ha         1 66R       0.109000
     64 H29          6.5760    -4.7140     2.6630 ha         1 66R       0.113000
     65 H30          7.0480    -2.6470     1.3970 ha         1 66R       0.130000
     66 H31         -1.8790     4.2120     3.6510 h1         1 66R       0.033033
     67 H32         -0.9230     2.7750     4.0510 h1         1 66R       0.033033
     68 H33         -0.1100     4.2840     3.5810 h1         1 66R       0.033033
@<TRIPOS>BOND
     1     1     2 ar  
     2     1     6 ar  
     3     1    39 1   
     4     2     3 ar  
     5     2     8 1   
     6     3     4 ar  
     7     3     7 1   
     8     4     5 ar  
     9     4    40 1   
    10     5     6 ar  
    11     5    41 1   
    12     6    42 1   
    13     8     9 1   
    14     8    13 1   
    15     9    10 1   
    16     9    43 1   
    17     9    44 1   
    18    10    11 1   
    19    10    45 1   
    20    10    46 1   
    21    11    12 1   
    22    11    14 1   
    23    12    13 1   
    24    12    47 1   
    25    12    48 1   
    26    13    49 1   
    27    13    50 1   
    28    14    15 1   
    29    14    51 1   
    30    14    52 1   
    31    15    16 ar  
    32    15    20 ar  
    33    16    17 ar  
    34    16    37 1   
    35    17    18 ar  
    36    17    53 1   
    37    18    19 ar  
    38    18    54 1   
    39    19    20 ar  
    40    19    21 1   
    41    20    55 1   
    42    21    22 1   
    43    21    26 1   
    44    21    56 1   
    45    22    23 2   
    46    22    32 1   
    47    23    24 1   
    48    23    30 1   
    49    24    25 1   
    50    24    57 1   
    51    24    58 1   
    52    25    26 1   
    53    25    27 1   
    54    25    59 1   
    55    26    60 1   
    56    27    28 1   
    57    27    29 1   
    58    30    31 ar  
    59    30    36 ar  
    60    31    32 1   
    61    31    33 ar  
    62    32    61 1   
    63    33    34 ar  
    64    33    62 1   
    65    34    35 ar  
    66    34    63 1   
    67    35    36 ar  
    68    35    64 1   
    69    36    65 1   
    70    37    38 1   
    71    38    66 1   
    72    38    67 1   
    73    38    68 1   
@<TRIPOS>SUBSTRUCTURE
     1 66R         1 TEMP              0 ****  ****    0 ROOT
