@<TRIPOS>MOLECULE
66T
   67    70     1     0     0
SMALL
abcg2


@<TRIPOS>ATOM
      1 C           10.0990     2.1860     0.5770 c3         1 66T      -0.092100
      2 N            7.2770    -0.2300    -0.1790 nh         1 66T      -0.795400
      3 O            1.0170    -1.3750    -0.7780 o          1 66T      -0.573100
      4 C1           9.3970     1.0260    -0.1060 c6         1 66T       0.163500
      5 N1          10.0790    -0.2210     0.1830 n7         1 66T      -0.862400
      6 O1          -9.2900     1.5820    -1.4610 os         1 66T      -0.343100
      7 C2           7.9550     0.9300     0.3730 c6         1 66T       0.210300
      8 N2           0.8690     0.5080     0.4540 ns         1 66T      -0.401100
      9 O2          -8.7150    -2.5100     1.0230 os         1 66T      -0.343100
     10 C3           8.0270    -1.4710    -0.0440 c6         1 66T       0.210300
     11 N3          -2.4330     1.5260     1.1350 nc         1 66T      -0.527800
     12 C4           9.4620    -1.3270    -0.5240 c6         1 66T       0.163500
     13 N4          -1.0980     1.5810     1.1870 na         1 66T      -0.051200
     14 C5          10.2310    -2.6110    -0.2710 c3         1 66T      -0.092100
     15 C6           5.9030    -0.2710    -0.1520 ca         1 66T       0.355000
     16 C7           5.1870    -1.3870    -0.6340 ca         1 66T      -0.196500
     17 C8           3.8110    -1.4100    -0.6380 ca         1 66T      -0.024000
     18 C9           3.0510    -0.3430    -0.1530 ca         1 66T      -0.209600
     19 C10          3.7520     0.7630     0.3270 ca         1 66T      -0.024000
     20 C11          5.1330     0.8020     0.3360 ca         1 66T      -0.196500
     21 C12          1.5770    -0.4600    -0.1970 c          1 66T       0.637700
     22 C13         -0.5080     0.5850     0.4970 cc         1 66T       0.008600
     23 C14         -1.5280    -0.1720    -0.0420 cd         1 66T      -0.233000
     24 C15         -2.7060     0.4720     0.3940 cd         1 66T       0.269300
     25 C16         -4.1100     0.0730     0.0710 c3         1 66T      -0.101700
     26 C17         -5.1680     0.7670     0.9290 c3         1 66T      -0.030100
     27 C18         -6.5560     0.3390     0.5350 ca         1 66T      -0.009300
     28 C19         -7.0490    -0.8880     0.9630 ca         1 66T      -0.181500
     29 C20         -8.3170    -1.3060     0.5680 ca         1 66T       0.175100
     30 C21         -9.1060    -0.4990    -0.2530 ca         1 66T      -0.289000
     31 C22         -8.6040     0.7310    -0.6730 ca         1 66T       0.175100
     32 C23         -7.3320     1.1480    -0.2830 ca         1 66T      -0.181500
     33 C24        -10.5870     1.2220    -1.8890 c3         1 66T       0.150900
     34 C25         -9.9920    -2.9910     0.6550 c3         1 66T       0.150900
     35 H1           9.3680     1.2210    -1.1920 h1         1 66T       0.031200
     36 H4           9.4320    -1.1410    -1.6110 h1         1 66T       0.031200
     37 HN4         -0.6460     2.3130     1.7110 hn         1 66T       0.363000
     38 H           11.1340     2.2640     0.2420 hc         1 66T       0.043033
     39 HA           9.6070     3.1310     0.3450 hc         1 66T       0.043033
     40 HB          10.1040     2.0580     1.6610 hc         1 66T       0.043033
     41 H2           7.4460     1.8350     0.0450 h1         1 66T       0.048450
     42 H2A          7.9330     0.9140     1.4730 h1         1 66T       0.048450
     43 H3           8.0310    -1.8000     1.0060 h1         1 66T       0.048450
     44 H3A          7.5610    -2.2580    -0.6300 h1         1 66T       0.048450
     45 HN1         11.0500    -0.1430    -0.0950 hn         1 66T       0.416000
     46 H5          10.2500    -2.8520     0.7930 hc         1 66T       0.043033
     47 H5A          9.7790    -3.4490    -0.8030 hc         1 66T       0.043033
     48 H5B         11.2620    -2.5190    -0.6160 hc         1 66T       0.043033
     49 H7           5.7020    -2.2480    -1.0320 ha         1 66T       0.117000
     50 H8           3.3120    -2.2860    -1.0300 ha         1 66T       0.117000
     51 H10          3.2460     1.6390     0.7130 ha         1 66T       0.117000
     52 H11          5.6010     1.6840     0.7440 ha         1 66T       0.117000
     53 HN2          1.3690     1.2210     0.9610 hn         1 66T       0.318500
     54 H14         -1.4530    -1.0520    -0.6530 ha         1 66T       0.168000
     55 H16         -4.3070     0.2830    -0.9850 hc         1 66T       0.056700
     56 H16A        -4.2040    -1.0110     0.1780 hc         1 66T       0.056700
     57 H17         -4.9930     0.5340     1.9820 hc         1 66T       0.059700
     58 H17A        -5.0720     1.8490     0.8270 hc         1 66T       0.059700
     59 H19         -6.4550    -1.5250     1.6080 ha         1 66T       0.129000
     60 H21        -10.0930    -0.8210    -0.5540 ha         1 66T       0.118000
     61 H23         -6.9580     2.1080    -0.6210 ha         1 66T       0.129000
     62 H24        -10.9480     2.0420    -2.5040 h1         1 66T       0.038700
     63 H24A       -10.5820     0.3090    -2.4900 h1         1 66T       0.038700
     64 H24B       -11.2730     1.0850    -1.0480 h1         1 66T       0.038700
     65 H25        -10.7940    -2.3450     1.0220 h1         1 66T       0.038700
     66 H25A       -10.0930    -3.0970    -0.4290 h1         1 66T       0.038700
     67 H25B       -10.0970    -3.9710     1.1120 h1         1 66T       0.038700
@<TRIPOS>BOND
     1     1     4 1   
     2     1    38 1   
     3     1    39 1   
     4     1    40 1   
     5     2     7 1   
     6     2    10 1   
     7     2    15 1   
     8     3    21 2   
     9     4     5 1   
    10     4     7 1   
    11     4    35 1   
    12     5    12 1   
    13     5    45 1   
    14     6    31 1   
    15     6    33 1   
    16     7    41 1   
    17     7    42 1   
    18     8    21 1   
    19     8    22 1   
    20     8    53 1   
    21     9    29 1   
    22     9    34 1   
    23    10    12 1   
    24    10    43 1   
    25    10    44 1   
    26    11    13 1   
    27    11    24 2   
    28    12    14 1   
    29    12    36 1   
    30    13    22 1   
    31    13    37 1   
    32    14    46 1   
    33    14    47 1   
    34    14    48 1   
    35    15    16 ar  
    36    15    20 ar  
    37    16    17 ar  
    38    16    49 1   
    39    17    18 ar  
    40    17    50 1   
    41    18    19 ar  
    42    18    21 1   
    43    19    20 ar  
    44    19    51 1   
    45    20    52 1   
    46    22    23 2   
    47    23    24 1   
    48    23    54 1   
    49    24    25 1   
    50    25    26 1   
    51    25    55 1   
    52    25    56 1   
    53    26    27 1   
    54    26    57 1   
    55    26    58 1   
    56    27    28 ar  
    57    27    32 ar  
    58    28    29 ar  
    59    28    59 1   
    60    29    30 ar  
    61    30    31 ar  
    62    30    60 1   
    63    31    32 ar  
    64    32    61 1   
    65    33    62 1   
    66    33    63 1   
    67    33    64 1   
    68    34    65 1   
    69    34    66 1   
    70    34    67 1   
@<TRIPOS>SUBSTRUCTURE
     1 66T         1 TEMP              0 ****  ****    0 ROOT
