@<TRIPOS>MOLECULE
66T
   67    70     1     0     0
SMALL
No Charge or Current Charge


@<TRIPOS>ATOM
      1 C           10.4140     1.6950    -0.5810 c3         1 66T      -0.092100
      2 N            7.1390    -0.3610     0.0490 nh         1 66T      -0.795400
      3 O            0.7490    -1.0480    -0.7090 o          1 66T      -0.573100
      4 C1           9.4940     0.4520    -0.5200 c6         1 66T       0.163500
      5 N1          10.0910    -0.5450     0.4100 n7         1 66T      -0.862400
      6 O1          -9.6740     1.3420     0.7170 os         1 66T      -0.343100
      7 C2           8.0210     0.8380    -0.1320 c6         1 66T       0.210300
      8 N2           0.7820     1.1630    -0.1150 ns         1 66T      -0.401100
      9 O2          -8.0390    -3.0050    -0.8170 os         1 66T      -0.343100
     10 C3           7.7510    -1.4000     0.9410 c6         1 66T       0.210300
     11 N3          -2.5050     2.7720     0.0250 nc         1 66T      -0.527800
     12 C4           9.2280    -1.7510     0.5350 c6         1 66T       0.163500
     13 N4          -1.1220     2.7460     0.1390 na         1 66T      -0.051200
     14 C5           9.8800    -2.7310     1.5400 c3         1 66T      -0.092100
     15 C6           5.7330    -0.2600    -0.0490 ca         1 66T       0.355000
     16 C7           4.9770    -1.3820    -0.4210 ca         1 66T      -0.196500
     17 C8           3.5780    -1.3060    -0.5270 ca         1 66T      -0.024000
     18 C9           2.8980    -0.0960    -0.2610 ca         1 66T      -0.209600
     19 C10          3.6630     1.0350     0.1130 ca         1 66T      -0.024000
     20 C11          5.0630     0.9480     0.2150 ca         1 66T      -0.196500
     21 C12          1.3870    -0.0540    -0.3860 c          1 66T       0.637700
     22 C13         -0.5670     1.5020    -0.1440 cc         1 66T       0.008600
     23 C14         -1.6450     0.7240    -0.4470 cd         1 66T      -0.233000
     24 C15         -2.7920     1.5330    -0.3320 cd         1 66T       0.269300
     25 C16         -4.2150     1.0990    -0.5670 c3         1 66T      -0.101700
     26 C17         -4.8390     0.4240     0.6720 c3         1 66T      -0.030100
     27 C18         -6.2720    -0.0250     0.4200 ca         1 66T      -0.009300
     28 C19         -6.5360    -1.3110    -0.0830 ca         1 66T      -0.181500
     29 C20         -7.8530    -1.7300    -0.3230 ca         1 66T       0.175100
     30 C21         -8.9270    -0.8540    -0.0610 ca         1 66T      -0.289000
     31 C22         -8.6680     0.4380     0.4420 ca         1 66T       0.175100
     32 C23         -7.3460     0.8430     0.6770 ca         1 66T      -0.181500
     33 C24        -11.0640     1.0330     0.5120 c3         1 66T       0.150900
     34 C25         -9.3440    -3.5380    -1.1010 c3         1 66T       0.150900
     35 H1           9.4690     0.0090    -1.5270 h1         1 66T       0.031200
     36 H4           9.1960    -2.2530    -0.4440 h1         1 66T       0.031200
     37 HN4         -0.6030     3.5800     0.4080 hn         1 66T       0.363000
     38 H           11.4260     1.4250    -0.9040 hc         1 66T       0.043033
     39 HA          10.0270     2.4340    -1.2930 hc         1 66T       0.043033
     40 HB          10.4910     2.1840     0.3980 hc         1 66T       0.043033
     41 H2           7.6160     1.4890    -0.9200 h1         1 66T       0.048450
     42 H2A          8.0420     1.4240     0.7990 h1         1 66T       0.048450
     43 H3           7.7460    -1.0370     1.9790 h1         1 66T       0.048450
     44 H3A          7.1590    -2.3270     0.9230 h1         1 66T       0.048450
     45 HN1         11.0080    -0.8290     0.0460 hn         1 66T       0.416000
     46 H5           9.9520    -2.2890     2.5410 hc         1 66T       0.043033
     47 H5A          9.2940    -3.6540     1.6230 hc         1 66T       0.043033
     48 H5B         10.8920    -3.0120     1.2220 hc         1 66T       0.043033
     49 H7           5.4760    -2.3200    -0.6440 ha         1 66T       0.117000
     50 H8           3.0260    -2.1960    -0.8210 ha         1 66T       0.117000
     51 H10          3.1960     1.9920     0.3320 ha         1 66T       0.117000
     52 H11          5.6200     1.8300     0.5140 ha         1 66T       0.117000
     53 HN2          1.4360     1.8900     0.1380 hn         1 66T       0.318500
     54 H14         -1.6430    -0.3230    -0.7250 ha         1 66T       0.168000
     55 H16         -4.8300     1.9600    -0.8560 hc         1 66T       0.056700
     56 H16A        -4.2490     0.4000    -1.4100 hc         1 66T       0.056700
     57 H17         -4.2210    -0.4340     0.9640 hc         1 66T       0.059700
     58 H17A        -4.8070     1.1240     1.5170 hc         1 66T       0.059700
     59 H19         -5.7150    -1.9920    -0.2910 ha         1 66T       0.129000
     60 H21         -9.9460    -1.1730    -0.2450 ha         1 66T       0.118000
     61 H23         -7.1570     1.8420     1.0620 ha         1 66T       0.129000
     62 H24        -11.6880     1.8900     0.7940 h1         1 66T       0.038700
     63 H24A       -11.2610     0.8020    -0.5420 h1         1 66T       0.038700
     64 H24B       -11.3670     0.1750     1.1250 h1         1 66T       0.038700
     65 H25         -9.9610    -3.5630    -0.1930 h1         1 66T       0.038700
     66 H25A        -9.8560    -2.9330    -1.8600 h1         1 66T       0.038700
     67 H25B        -9.2610    -4.5630    -1.4830 h1         1 66T       0.038700
@<TRIPOS>BOND
     1     1     4 1   
     2     1    38 1   
     3     1    39 1   
     4     1    40 1   
     5     2     7 1   
     6     2    10 1   
     7     2    15 1   
     8     3    21 2   
     9     4     5 1   
    10     4     7 1   
    11     4    35 1   
    12     5    12 1   
    13     5    45 1   
    14     6    31 1   
    15     6    33 1   
    16     7    41 1   
    17     7    42 1   
    18     8    21 1   
    19     8    22 1   
    20     8    53 1   
    21     9    29 1   
    22     9    34 1   
    23    10    12 1   
    24    10    43 1   
    25    10    44 1   
    26    11    13 1   
    27    11    24 2   
    28    12    14 1   
    29    12    36 1   
    30    13    22 1   
    31    13    37 1   
    32    14    46 1   
    33    14    47 1   
    34    14    48 1   
    35    15    16 ar  
    36    15    20 ar  
    37    16    17 ar  
    38    16    49 1   
    39    17    18 ar  
    40    17    50 1   
    41    18    19 ar  
    42    18    21 1   
    43    19    20 ar  
    44    19    51 1   
    45    20    52 1   
    46    22    23 2   
    47    23    24 1   
    48    23    54 1   
    49    24    25 1   
    50    25    26 1   
    51    25    55 1   
    52    25    56 1   
    53    26    27 1   
    54    26    57 1   
    55    26    58 1   
    56    27    28 ar  
    57    27    32 ar  
    58    28    29 ar  
    59    28    59 1   
    60    29    30 ar  
    61    30    31 ar  
    62    30    60 1   
    63    31    32 ar  
    64    32    61 1   
    65    33    62 1   
    66    33    63 1   
    67    33    64 1   
    68    34    65 1   
    69    34    66 1   
    70    34    67 1   
@<TRIPOS>SUBSTRUCTURE
     1 66T         1 TEMP              0 ****  ****    0 ROOT
