@<TRIPOS>MOLECULE
66U
   28    28     1     0     0
SMALL
No Charge or Current Charge


@<TRIPOS>ATOM
      1 C1          -0.7840    -1.0210     0.2810 c6         1 66U       0.181300
      2 C2          -1.2000     0.4210    -0.1790 c6         1 66U      -0.060700
      3 C3          -0.0810     1.4380     0.2380 c6         1 66U       0.164500
      4 C4           1.3320     0.9970    -0.2770 c6         1 66U       0.137300
      5 C5           1.6980    -0.4190     0.2480 c6         1 66U       0.112300
      6 C6           0.6230    -1.4270    -0.2540 c6         1 66U       0.098300
      7 C8          -2.5920     0.8470     0.4050 c3         1 66U       0.173600
      8 O8          -3.7020     0.2620    -0.2920 oh         1 66U      -0.646000
      9 O1          -1.6990    -2.0310    -0.1540 oh         1 66U      -0.692000
     10 O6           0.9280    -2.7780     0.1590 oh         1 66U      -0.732000
     11 O5           3.0200    -0.7850    -0.2100 oh         1 66U      -0.733000
     12 N1          -0.3670     2.8200    -0.2320 n8         1 66U      -0.993200
     13 H1          -0.7390    -1.0240     1.3810 h1         1 66U       0.036700
     14 H2          -1.2930     0.4350    -1.2730 hc         1 66U       0.071700
     15 H3          -0.0380     1.4730     1.3390 h1         1 66U       0.071700
     16 H4           1.2920     0.9470    -1.3770 h1         1 66U       0.039700
     17 H6           1.6710    -0.3970     1.3490 h1         1 66U       0.057700
     18 H7           0.5960    -1.3750    -1.3540 h1         1 66U       0.056700
     19 H8          -2.6220     0.5780     1.4700 h1         1 66U       0.031200
     20 H9          -2.6900     1.9390     0.3540 h1         1 66U       0.031200
     21 H10         -4.5170     0.5440     0.1790 ho         1 66U       0.438000
     22 H11         -1.1480    -2.8510    -0.1230 ho         1 66U       0.512000
     23 H12          1.7680    -3.0260    -0.2980 ho         1 66U       0.513000
     24 H13          3.4140    -1.3710     0.4790 ho         1 66U       0.516000
     25 H14          0.5010     3.3530    -0.0880 hn         1 66U       0.405500
     26 H15         -0.4530     2.8090    -1.2540 hn         1 66U       0.405500
     27 O4           2.3530     1.9330     0.1130 oh         1 66U      -0.726000
     28 H5           3.1940     1.4250     0.0050 ho         1 66U       0.525000
@<TRIPOS>BOND
     1     1     2 1   
     2     1     6 1   
     3     1     9 1   
     4     1    13 1   
     5     2     3 1   
     6     2     7 1   
     7     2    14 1   
     8     3     4 1   
     9     3    12 1   
    10     3    15 1   
    11     4     5 1   
    12     4    16 1   
    13     4    27 1   
    14     5     6 1   
    15     5    11 1   
    16     5    17 1   
    17     6    10 1   
    18     6    18 1   
    19     7     8 1   
    20     7    19 1   
    21     7    20 1   
    22     8    21 1   
    23     9    22 1   
    24    10    23 1   
    25    11    24 1   
    26    12    25 1   
    27    12    26 1   
    28    27    28 1   
@<TRIPOS>SUBSTRUCTURE
     1 66U         1 TEMP              0 ****  ****    0 ROOT
