@<TRIPOS>MOLECULE
66U
   28    28     1     0     0
SMALL
abcg2


@<TRIPOS>ATOM
      1 C1          -0.7300    -1.0170     0.2960 c6         1 66U       0.181300
      2 C2          -1.1350     0.3820    -0.1670 c6         1 66U      -0.060700
      3 C3          -0.0630     1.4100     0.2410 c6         1 66U       0.164500
      4 C4           1.3250     0.9840    -0.2450 c6         1 66U       0.137300
      5 C5           1.6910    -0.4090     0.2400 c6         1 66U       0.112300
      6 C6           0.6470    -1.4070    -0.2300 c6         1 66U       0.098300
      7 C8          -2.4930     0.8010     0.3940 c3         1 66U       0.173600
      8 O8          -3.5470     0.1710    -0.3030 oh         1 66U      -0.646000
      9 O1          -1.6940    -1.9520    -0.1200 oh         1 66U      -0.692000
     10 O6           0.9300    -2.7100     0.2450 oh         1 66U      -0.732000
     11 O5           2.9750    -0.7140    -0.2640 oh         1 66U      -0.733000
     12 N1          -0.4330     2.7360    -0.2260 n8         1 66U      -0.993200
     13 H1          -0.6710    -0.9930     1.3990 h1         1 66U       0.036700
     14 H2          -1.2020     0.3870    -1.2640 hc         1 66U       0.071700
     15 H3          -0.0320     1.4520     1.3390 h1         1 66U       0.071700
     16 H4           1.2980     0.9660    -1.3490 h1         1 66U       0.039700
     17 H6           1.7040    -0.4030     1.3410 h1         1 66U       0.057700
     18 H7           0.6150    -1.3990    -1.3290 h1         1 66U       0.056700
     19 H8          -2.5200     0.5640     1.4680 h1         1 66U       0.031200
     20 H9          -2.5700     1.8880     0.3090 h1         1 66U       0.031200
     21 H10         -4.3570     0.6340    -0.0740 ho         1 66U       0.438000
     22 H11         -1.3400    -2.8250     0.0820 ho         1 66U       0.512000
     23 H12          1.4840    -3.1640    -0.3950 ho         1 66U       0.513000
     24 H13          3.3550    -1.4220     0.2650 ho         1 66U       0.516000
     25 H14          0.2620     3.4070     0.0740 hn         1 66U       0.405500
     26 H15         -0.4190     2.7550    -1.2400 hn         1 66U       0.405500
     27 O4           2.2540     1.9400     0.2090 oh         1 66U      -0.726000
     28 H5           3.1320     1.6530    -0.0610 ho         1 66U       0.525000
@<TRIPOS>BOND
     1     1     2 1   
     2     1     6 1   
     3     1     9 1   
     4     1    13 1   
     5     2     3 1   
     6     2     7 1   
     7     2    14 1   
     8     3     4 1   
     9     3    12 1   
    10     3    15 1   
    11     4     5 1   
    12     4    16 1   
    13     4    27 1   
    14     5     6 1   
    15     5    11 1   
    16     5    17 1   
    17     6    10 1   
    18     6    18 1   
    19     7     8 1   
    20     7    19 1   
    21     7    20 1   
    22     8    21 1   
    23     9    22 1   
    24    10    23 1   
    25    11    24 1   
    26    12    25 1   
    27    12    26 1   
    28    27    28 1   
@<TRIPOS>SUBSTRUCTURE
     1 66U         1 TEMP              0 ****  ****    0 ROOT
