@<TRIPOS>MOLECULE
66V
   55    55     1     0     0
SMALL
abcg2


@<TRIPOS>ATOM
      1 C1          15.7110   157.5560   137.6890 c6         1 66V       0.180300
      2 C2          15.8280   156.0400   137.4310 c6         1 66V       0.156300
      3 C3          15.5660   155.1980   138.6710 c6         1 66V       0.104300
      4 C4          16.1440   155.8810   139.9050 c6         1 66V       0.156300
      5 C5          15.3780   157.1750   140.2080 c6         1 66V      -0.069700
      6 C6          14.8700   157.8950   138.9270 c6         1 66V       0.149500
      7 C7          16.1630   158.0910   141.1310 c3         1 66V       0.163600
      8 N8          13.4710   157.5440   138.6660 n7         1 66V      -0.867400
      9 C9          12.5160   158.2430   139.5250 c3         1 66V       0.159800
     10 C10         11.0830   157.8740   139.1700 c3         1 66V      -0.078400
     11 C11         10.0530   158.5810   140.0450 c3         1 66V      -0.073400
     12 C12          8.6130   158.1980   139.7080 c3         1 66V      -0.073400
     13 C13          7.5850   158.8890   140.5980 c3         1 66V      -0.073400
     14 C14          6.1460   158.4970   140.2740 c3         1 66V      -0.083400
     15 C15          5.1380   159.1930   141.1840 c3         1 66V      -0.094400
     16 C16          3.7000   158.7650   140.9600 c3         1 66V       0.158800
     17 N17          3.2580   159.2070   139.5870 n2         1 66V      -0.072200
     18 N18          2.8110   158.5400   138.7570 n1         1 66V       0.224000
     19 N19          2.5000   157.9260   137.8000 n2         1 66V      -0.211400
     20 O20         14.9390   155.6860   136.3670 oh         1 66V      -0.727000
     21 O21         16.1650   153.9150   138.4420 oh         1 66V      -0.733000
     22 O22         16.0380   155.0430   141.0600 oh         1 66V      -0.736000
     23 O23         17.3770   158.5050   140.4750 oh         1 66V      -0.690000
     24 H1          15.2200   157.9870   136.8120 h1         1 66V       0.076700
     25 H3          16.8620   155.8560   137.1190 h1         1 66V       0.070700
     26 H4          14.4880   155.0810   138.8030 h1         1 66V       0.067700
     27 H5          17.2010   156.0960   139.7190 h1         1 66V       0.065700
     28 H6          14.4920   156.8680   140.7690 hc         1 66V       0.081700
     29 H7          14.9690   158.9800   139.0850 h1         1 66V       0.035700
     30 H8          15.5590   158.9680   141.3770 h1         1 66V       0.038700
     31 H9          16.4140   157.5670   142.0560 h1         1 66V       0.038700
     32 H10         13.2540   157.7720   137.7010 hn         1 66V       0.424000
     33 H12         12.7110   157.9670   140.5650 h1         1 66V       0.029200
     34 H13         12.6450   159.3360   139.4630 h1         1 66V       0.029200
     35 H14         10.9000   158.1210   138.1180 hc         1 66V       0.048700
     36 H15         10.9640   156.7890   139.2630 hc         1 66V       0.048700
     37 H16         10.2500   158.3450   141.0970 hc         1 66V       0.042200
     38 H17         10.1710   159.6650   139.9450 hc         1 66V       0.042200
     39 H18          8.4090   158.4440   138.6590 hc         1 66V       0.042200
     40 H19          8.4980   157.1130   139.7990 hc         1 66V       0.042200
     41 H20          7.7940   158.6490   141.6470 hc         1 66V       0.050700
     42 H21          7.6920   159.9760   140.5030 hc         1 66V       0.050700
     43 H22          5.9300   158.7440   139.2290 hc         1 66V       0.041200
     44 H23          6.0300   157.4120   140.3700 hc         1 66V       0.041200
     45 H24          5.3480   158.9510   142.2300 hc         1 66V       0.096200
     46 H25          5.2110   160.2780   141.0870 hc         1 66V       0.096200
     47 H26          3.0120   159.2830   141.6260 h1         1 66V       0.107200
     48 H27          3.5540   157.6870   141.0150 h1         1 66V       0.107200
     49 H28          1.4860   157.7910   137.6730 hn         1 66V       0.520400
     50 H29         15.0020   154.7310   136.2410 ho         1 66V       0.515000
     51 H30         15.7380   153.2730   139.0210 ho         1 66V       0.507000
     52 H31         16.7040   154.3490   140.9890 ho         1 66V       0.512000
     53 H32         17.6960   159.3190   140.8810 ho         1 66V       0.457000
     54 O1          17.0050   158.1480   137.7680 oh         1 66V      -0.735000
     55 H2          17.2180   158.3460   138.7020 ho         1 66V       0.537000
@<TRIPOS>BOND
     1     1     2 1   
     2     1     6 1   
     3     1    24 1   
     4     1    54 1   
     5     2     3 1   
     6     2    20 1   
     7     2    25 1   
     8     3     4 1   
     9     3    21 1   
    10     3    26 1   
    11     4     5 1   
    12     4    22 1   
    13     4    27 1   
    14     5     6 1   
    15     5     7 1   
    16     5    28 1   
    17     6     8 1   
    18     6    29 1   
    19     7    23 1   
    20     7    30 1   
    21     7    31 1   
    22     8     9 1   
    23     8    32 1   
    24     9    10 1   
    25     9    33 1   
    26     9    34 1   
    27    10    11 1   
    28    10    35 1   
    29    10    36 1   
    30    11    12 1   
    31    11    37 1   
    32    11    38 1   
    33    12    13 1   
    34    12    39 1   
    35    12    40 1   
    36    13    14 1   
    37    13    41 1   
    38    13    42 1   
    39    14    15 1   
    40    14    43 1   
    41    14    44 1   
    42    15    16 1   
    43    15    45 1   
    44    15    46 1   
    45    16    17 1   
    46    16    47 1   
    47    16    48 1   
    48    17    18 2   
    49    18    19 2   
    50    19    49 1   
    51    20    50 1   
    52    21    51 1   
    53    22    52 1   
    54    23    53 1   
    55    54    55 1   
@<TRIPOS>SUBSTRUCTURE
     1 66V         1 TEMP              0 ****  ****    0 ROOT
