@<TRIPOS>MOLECULE
66V
   55    55     1     0     0
SMALL
No Charge or Current Charge


@<TRIPOS>ATOM
      1 C1          15.8070   157.5620   137.6160 c6         1 66V       0.180300
      2 C2          15.9030   156.0140   137.3250 c6         1 66V       0.156300
      3 C3          15.5740   155.1440   138.5810 c6         1 66V       0.104300
      4 C4          16.1990   155.7820   139.8500 c6         1 66V       0.156300
      5 C5          15.4890   157.1410   140.1770 c6         1 66V      -0.069700
      6 C6          14.9450   157.8850   138.8950 c6         1 66V       0.149500
      7 C7          16.3840   158.0660   141.0490 c3         1 66V       0.163600
      8 N8          13.4980   157.6120   138.6740 n7         1 66V      -0.867400
      9 C9          12.5340   158.3120   139.5430 c3         1 66V       0.159800
     10 C10         11.0980   157.8760   139.1950 c3         1 66V      -0.078400
     11 C11         10.0310   158.5690   140.0720 c3         1 66V      -0.073400
     12 C12          8.5890   158.1340   139.7280 c3         1 66V      -0.073400
     13 C13          7.5230   158.8270   140.6050 c3         1 66V      -0.073400
     14 C14          6.0820   158.3920   140.2590 c3         1 66V      -0.083400
     15 C15          5.0130   159.0880   141.1400 c3         1 66V      -0.094400
     16 C16          3.5600   158.6410   140.8460 c3         1 66V       0.158800
     17 N17          3.1560   159.0430   139.4960 n2         1 66V      -0.072200
     18 N18          2.0550   158.6300   139.1020 n1         1 66V       0.224000
     19 N19          2.0390   158.6020   137.8650 n2         1 66V      -0.211400
     20 O20         15.0560   155.6010   136.2320 oh         1 66V      -0.727000
     21 O21         16.0460   153.7940   138.4160 oh         1 66V      -0.733000
     22 O22         16.0850   154.8580   140.9530 oh         1 66V      -0.736000
     23 O23         17.5570   158.4970   140.3440 oh         1 66V      -0.690000
     24 H1          15.3110   158.0330   136.7530 h1         1 66V       0.076700
     25 H3          16.9500   155.8050   137.0550 h1         1 66V       0.070700
     26 H4          14.4820   155.1300   138.7240 h1         1 66V       0.067700
     27 H5          17.2620   155.9730   139.6310 h1         1 66V       0.065700
     28 H6          14.6300   156.9110   140.8210 hc         1 66V       0.081700
     29 H7          15.0280   158.9700   139.0630 h1         1 66V       0.035700
     30 H8          15.7890   158.9370   141.3560 h1         1 66V       0.038700
     31 H9          16.6670   157.5270   141.9630 h1         1 66V       0.038700
     32 H10         13.2640   157.8560   137.7030 hn         1 66V       0.424000
     33 H12         12.7260   158.0890   140.6010 h1         1 66V       0.029200
     34 H13         12.6210   159.3990   139.4100 h1         1 66V       0.029200
     35 H14         10.8970   158.1000   138.1400 hc         1 66V       0.048700
     36 H15         11.0130   156.7890   139.3170 hc         1 66V       0.048700
     37 H16         10.2320   158.3460   141.1270 hc         1 66V       0.042200
     38 H17         10.1180   159.6560   139.9520 hc         1 66V       0.042200
     39 H18          8.3880   158.3570   138.6720 hc         1 66V       0.042200
     40 H19          8.5030   157.0470   139.8470 hc         1 66V       0.042200
     41 H20          7.7250   158.6040   141.6600 hc         1 66V       0.050700
     42 H21          7.6100   159.9140   140.4850 hc         1 66V       0.050700
     43 H22          5.8880   158.6120   139.2020 hc         1 66V       0.041200
     44 H23          5.9960   157.3040   140.3800 hc         1 66V       0.041200
     45 H24          5.2300   158.8780   142.1950 hc         1 66V       0.096200
     46 H25          5.0860   160.1760   141.0170 hc         1 66V       0.096200
     47 H26          2.8930   159.0960   141.5890 h1         1 66V       0.107200
     48 H27          3.4870   157.5520   140.9660 h1         1 66V       0.107200
     49 H28          1.0710   158.4980   137.5400 hn         1 66V       0.520400
     50 H29         15.0430   154.6150   136.2830 ho         1 66V       0.515000
     51 H30         16.1700   153.4850   139.3480 ho         1 66V       0.507000
     52 H31         16.6580   155.1980   141.6800 ho         1 66V       0.512000
     53 H32         18.1060   159.0030   140.9880 ho         1 66V       0.457000
     54 O1          17.1270   158.1360   137.7480 oh         1 66V      -0.735000
     55 H2          17.2870   158.2700   138.7300 ho         1 66V       0.537000
@<TRIPOS>BOND
     1     1     2 1   
     2     1     6 1   
     3     1    24 1   
     4     1    54 1   
     5     2     3 1   
     6     2    20 1   
     7     2    25 1   
     8     3     4 1   
     9     3    21 1   
    10     3    26 1   
    11     4     5 1   
    12     4    22 1   
    13     4    27 1   
    14     5     6 1   
    15     5     7 1   
    16     5    28 1   
    17     6     8 1   
    18     6    29 1   
    19     7    23 1   
    20     7    30 1   
    21     7    31 1   
    22     8     9 1   
    23     8    32 1   
    24     9    10 1   
    25     9    33 1   
    26     9    34 1   
    27    10    11 1   
    28    10    35 1   
    29    10    36 1   
    30    11    12 1   
    31    11    37 1   
    32    11    38 1   
    33    12    13 1   
    34    12    39 1   
    35    12    40 1   
    36    13    14 1   
    37    13    41 1   
    38    13    42 1   
    39    14    15 1   
    40    14    43 1   
    41    14    44 1   
    42    15    16 1   
    43    15    45 1   
    44    15    46 1   
    45    16    17 1   
    46    16    47 1   
    47    16    48 1   
    48    17    18 2   
    49    18    19 2   
    50    19    49 1   
    51    20    50 1   
    52    21    51 1   
    53    22    52 1   
    54    23    53 1   
    55    54    55 1   
@<TRIPOS>SUBSTRUCTURE
     1 66V         1 TEMP              0 ****  ****    0 ROOT
