@<TRIPOS>MOLECULE
66X
   62    65     1     0     0
SMALL
abcg2


@<TRIPOS>ATOM
      1 C14          4.5910    -0.1850    -0.0500 c5         1 66X       0.227800
      2 C5           9.2960     0.6620    -0.5990 ca         1 66X       0.171900
      3 C6           8.0260     1.0320    -0.9630 ca         1 66X      -0.351000
      4 C11          3.7460     1.7140    -1.2400 c5         1 66X      -0.121400
      5 C7           6.9760     0.3090    -0.3500 ca         1 66X       0.433900
      6 C10          5.2450     1.6520    -1.4920 c5         1 66X       0.233800
      7 C12          3.3970     0.2670    -0.8900 c5         1 66X       0.099700
      8 C3           8.5180    -0.9370     0.7790 ca         1 66X       0.419900
      9 C1          10.0660    -2.3670     2.0420 c3         1 66X       0.237100
     10 N4           9.5800    -0.3110     0.2650 nb         1 66X      -0.280000
     11 N8           7.2350    -0.6700     0.5140 nb         1 66X      -0.342000
     12 N9           5.6870     0.5790    -0.6110 nh         1 66X      -0.798300
     13 N15          2.1560     0.0770    -0.1860 ns         1 66X      -0.508900
     14 C16          0.9680     0.0490    -0.8410 c          1 66X       0.662100
     15 O17          0.8800     0.0440    -2.0590 o          1 66X      -0.618100
     16 N18         -0.1180     0.0040    -0.0010 ns         1 66X      -0.163000
     17 C19         -1.4630     0.0570    -0.3540 ca         1 66X      -0.007000
     18 C20         -1.9700    -0.2590    -1.6110 ca         1 66X      -0.102000
     19 C21         -3.3370    -0.1890    -1.8280 ca         1 66X      -0.095000
     20 C22         -4.2510     0.1810    -0.8490 ca         1 66X      -0.058300
     21 C23         -5.7150     0.2200    -1.2100 c3         1 66X       0.216100
     22 N24         -6.5210    -0.6090    -0.3440 n3         1 66X      -0.725600
     23 C25         -7.9380    -0.3520    -0.4970 c6         1 66X       0.132300
     24 C26         -8.7200    -1.1870     0.4990 c6         1 66X       0.153100
     25 O27         -8.4490    -2.5630     0.3480 os         1 66X      -0.451000
     26 C28         -7.0690    -2.8180     0.4960 c6         1 66X       0.153100
     27 C29         -6.2410    -2.0220    -0.4950 c6         1 66X       0.132300
     28 C30         -3.7300     0.4950     0.4140 ca         1 66X      -0.139300
     29 C31         -2.3640     0.4290     0.6450 ca         1 66X      -0.137000
     30 C32         -4.5940     0.8840     1.5840 c3         1 66X       0.364300
     31 F33         -5.6400     1.6430     1.2480 f          1 66X      -0.114000
     32 F34         -5.0610    -0.1820     2.2450 f          1 66X      -0.114000
     33 F35         -3.9020     1.6010     2.4870 f          1 66X      -0.114000
     34 H1           4.4420     0.0540     1.0110 h1         1 66X       0.060200
     35 H2           4.7670    -1.2580    -0.1240 h1         1 66X       0.060200
     36 H3          10.1480     1.1800    -1.0290 h4         1 66X       0.013100
     37 H4           7.8600     1.8230    -1.6770 ha         1 66X       0.129000
     38 H5           3.5290     2.3600    -0.3860 hc         1 66X       0.064700
     39 H6           3.1910     2.0870    -2.1000 hc         1 66X       0.064700
     40 H7           5.4680     1.4170    -2.5370 h1         1 66X       0.053200
     41 H8           5.7400     2.5940    -1.2490 h1         1 66X       0.053200
     42 H9           3.3700    -0.3290    -1.8040 h1         1 66X       0.092700
     43 H10          7.9490    -2.4240     2.0100 hn         1 66X       0.503000
     44 H11          9.9580    -3.1670     2.7690 h1         1 66X       0.038367
     45 H12         10.6410    -2.7490     1.1970 h1         1 66X       0.038367
     46 H13         10.6430    -1.5640     2.5030 h1         1 66X       0.038367
     47 H14          2.1680     0.2420     0.8090 hn         1 66X       0.308500
     48 H15          0.0620     0.0770     0.9890 hn         1 66X       0.148000
     49 H16         -1.3240    -0.5660    -2.4170 ha         1 66X       0.154000
     50 H17         -3.7100    -0.4510    -2.8110 ha         1 66X       0.119000
     51 H18         -6.0880     1.2450    -1.1510 h1         1 66X       0.046200
     52 H19         -5.8150    -0.0730    -2.2680 h1         1 66X       0.046200
     53 H21         -8.1380     0.7050    -0.3040 h1         1 66X       0.041700
     54 H22         -8.2910    -0.5700    -1.5200 h1         1 66X       0.041700
     55 H23         -8.4710    -0.8570     1.5170 h1         1 66X       0.053200
     56 H24         -9.7920    -1.0460     0.3500 h1         1 66X       0.053200
     57 H25         -6.7410    -2.5700     1.5150 h1         1 66X       0.053200
     58 H26         -6.9150    -3.8870     0.3420 h1         1 66X       0.053200
     59 H27         -6.4470    -2.3730    -1.5230 h1         1 66X       0.041700
     60 H28         -5.1840    -2.2130    -0.2960 h1         1 66X       0.041700
     61 H29         -1.9660     0.6810     1.6200 ha         1 66X       0.124000
     62 N2           8.7500    -1.9300     1.6570 nu         1 66X      -0.933100
@<TRIPOS>BOND
     1     1     7 1   
     2     1    12 1   
     3     1    34 1   
     4     1    35 1   
     5     2     3 ar  
     6     2    10 ar  
     7     2    36 1   
     8     3     5 ar  
     9     3    37 1   
    10     4     6 1   
    11     4     7 1   
    12     4    38 1   
    13     4    39 1   
    14     5    11 ar  
    15     5    12 1   
    16     6    12 1   
    17     6    40 1   
    18     6    41 1   
    19     7    13 1   
    20     7    42 1   
    21     8    10 ar  
    22     8    11 ar  
    23     8    62 1   
    24     9    44 1   
    25     9    45 1   
    26     9    46 1   
    27     9    62 1   
    28    13    14 1   
    29    13    47 1   
    30    14    15 2   
    31    14    16 1   
    32    16    17 1   
    33    16    48 1   
    34    17    18 ar  
    35    17    29 ar  
    36    18    19 ar  
    37    18    49 1   
    38    19    20 ar  
    39    19    50 1   
    40    20    21 1   
    41    20    28 ar  
    42    21    22 1   
    43    21    51 1   
    44    21    52 1   
    45    22    23 1   
    46    22    27 1   
    47    23    24 1   
    48    23    53 1   
    49    23    54 1   
    50    24    25 1   
    51    24    55 1   
    52    24    56 1   
    53    25    26 1   
    54    26    27 1   
    55    26    57 1   
    56    26    58 1   
    57    27    59 1   
    58    27    60 1   
    59    28    29 ar  
    60    28    30 1   
    61    29    61 1   
    62    30    31 1   
    63    30    32 1   
    64    30    33 1   
    65    43    62 1   
@<TRIPOS>SUBSTRUCTURE
     1 66X         1 TEMP              0 ****  ****    0 ROOT
