@<TRIPOS>MOLECULE
66X
   62    65     1     0     0
SMALL
No Charge or Current Charge


@<TRIPOS>ATOM
      1 C14          4.5430    -0.2190    -0.0890 c5         1 66X       0.227800
      2 C5           9.4130     0.1850    -0.9280 ca         1 66X       0.171900
      3 C6           8.1090     0.4930    -1.3380 ca         1 66X      -0.351000
      4 C11          3.7830     1.4330    -1.6560 c5         1 66X      -0.121400
      5 C7           7.0500     0.0640    -0.5240 ca         1 66X       0.433900
      6 C10          5.2730     1.1710    -1.9980 c5         1 66X       0.233800
      7 C12          3.3760     0.0540    -1.0820 c5         1 66X       0.099700
      8 C3           8.5620    -0.8660     0.9100 ca         1 66X       0.419900
      9 C1          10.0460    -1.9880     2.6740 c3         1 66X       0.237100
     10 N4           9.6460    -0.4990     0.2050 nb         1 66X      -0.280000
     11 N8           7.2810    -0.6230     0.6080 nb         1 66X      -0.342000
     12 N9           5.7050     0.3240    -0.8520 nh         1 66X      -0.798300
     13 N15          2.1640     0.2940    -0.2790 ns         1 66X      -0.508900
     14 C16          0.9350     0.1780    -0.8970 c          1 66X       0.662100
     15 O17          0.8080    -0.1380    -2.0720 o          1 66X      -0.618100
     16 N18         -0.1100     0.4570    -0.0310 ns         1 66X      -0.163000
     17 C19         -1.5210     0.4720    -0.2070 ca         1 66X      -0.007000
     18 C20         -2.1570     0.1940    -1.4320 ca         1 66X      -0.102000
     19 C21         -3.5550     0.2320    -1.5230 ca         1 66X      -0.095000
     20 C22         -4.3540     0.5410    -0.4040 ca         1 66X      -0.058300
     21 C23         -5.8780     0.5570    -0.6030 c3         1 66X       0.216100
     22 N24         -6.5590    -0.6940    -0.1840 n3         1 66X      -0.725600
     23 C25         -8.0490    -0.5830    -0.2370 c6         1 66X       0.132300
     24 C26         -8.7430    -1.8950     0.2370 c6         1 66X       0.153100
     25 O27         -8.2630    -3.0250    -0.5320 os         1 66X      -0.451000
     26 C28         -6.8280    -3.1970    -0.4300 c6         1 66X       0.153100
     27 C29         -6.0900    -1.9140    -0.9160 c6         1 66X       0.132300
     28 C30         -3.7270     0.8300     0.8420 ca         1 66X      -0.139300
     29 C31         -2.3120     0.7880     0.9120 ca         1 66X      -0.137000
     30 C32         -4.5440     1.1950     2.1030 c3         1 66X       0.364300
     31 F33         -5.2520     2.3340     1.9310 f          1 66X      -0.114000
     32 F34         -5.4210     0.2260     2.4470 f          1 66X      -0.114000
     33 F35         -3.7690     1.3990     3.1940 f          1 66X      -0.114000
     34 H1           4.4150     0.3200     0.8610 h1         1 66X       0.060200
     35 H2           4.6360    -1.2930     0.1270 h1         1 66X       0.060200
     36 H3          10.2810     0.4870    -1.5130 h4         1 66X       0.013100
     37 H4           7.9410     1.0420    -2.2590 ha         1 66X       0.129000
     38 H5           3.6910     2.2360    -0.9150 hc         1 66X       0.064700
     39 H6           3.1970     1.7220    -2.5350 hc         1 66X       0.064700
     40 H7           5.3780     0.6310    -2.9500 h1         1 66X       0.053200
     41 H8           5.8350     2.1130    -2.0650 h1         1 66X       0.053200
     42 H9           3.2880    -0.7300    -1.8490 h1         1 66X       0.092700
     43 H10          7.9050    -1.8270     2.5820 hn         1 66X       0.503000
     44 H11          9.8790    -2.5370     3.6110 h1         1 66X       0.038367
     45 H12         10.5950    -2.6420     1.9830 h1         1 66X       0.038367
     46 H13         10.6700    -1.1110     2.8940 h1         1 66X       0.038367
     47 H14          2.1750     0.5640     0.6970 hn         1 66X       0.308500
     48 H15          0.1830     0.6970     0.9060 hn         1 66X       0.148000
     49 H16         -1.5900    -0.0510    -2.3240 ha         1 66X       0.154000
     50 H17         -4.0260     0.0120    -2.4790 ha         1 66X       0.119000
     51 H18         -6.3010     1.4100    -0.0590 h1         1 66X       0.046200
     52 H19         -6.0900     0.7490    -1.6640 h1         1 66X       0.046200
     53 H21         -8.3930     0.2460     0.3980 h1         1 66X       0.041700
     54 H22         -8.3790    -0.3620    -1.2630 h1         1 66X       0.041700
     55 H23         -8.5340    -2.0660     1.3030 h1         1 66X       0.053200
     56 H24         -9.8310    -1.8100     0.1110 h1         1 66X       0.053200
     57 H25         -6.5610    -3.4090     0.6150 h1         1 66X       0.053200
     58 H26         -6.5240    -4.0580    -1.0420 h1         1 66X       0.053200
     59 H27         -6.2570    -1.7980    -1.9970 h1         1 66X       0.041700
     60 H28         -5.0110    -2.0620    -0.7690 h1         1 66X       0.041700
     61 H29         -1.8060     1.0060     1.8500 ha         1 66X       0.124000
     62 N2           8.7600    -1.5730     2.0830 nu         1 66X      -0.933100
@<TRIPOS>BOND
     1     1     7 1   
     2     1    12 1   
     3     1    34 1   
     4     1    35 1   
     5     2     3 ar  
     6     2    10 ar  
     7     2    36 1   
     8     3     5 ar  
     9     3    37 1   
    10     4     6 1   
    11     4     7 1   
    12     4    38 1   
    13     4    39 1   
    14     5    11 ar  
    15     5    12 1   
    16     6    12 1   
    17     6    40 1   
    18     6    41 1   
    19     7    13 1   
    20     7    42 1   
    21     8    10 ar  
    22     8    11 ar  
    23     8    62 1   
    24     9    44 1   
    25     9    45 1   
    26     9    46 1   
    27     9    62 1   
    28    13    14 1   
    29    13    47 1   
    30    14    15 2   
    31    14    16 1   
    32    16    17 1   
    33    16    48 1   
    34    17    18 ar  
    35    17    29 ar  
    36    18    19 ar  
    37    18    49 1   
    38    19    20 ar  
    39    19    50 1   
    40    20    21 1   
    41    20    28 ar  
    42    21    22 1   
    43    21    51 1   
    44    21    52 1   
    45    22    23 1   
    46    22    27 1   
    47    23    24 1   
    48    23    53 1   
    49    23    54 1   
    50    24    25 1   
    51    24    55 1   
    52    24    56 1   
    53    25    26 1   
    54    26    27 1   
    55    26    57 1   
    56    26    58 1   
    57    27    59 1   
    58    27    60 1   
    59    28    29 ar  
    60    28    30 1   
    61    29    61 1   
    62    30    31 1   
    63    30    32 1   
    64    30    33 1   
    65    43    62 1   
@<TRIPOS>SUBSTRUCTURE
     1 66X         1 TEMP              0 ****  ****    0 ROOT
