@<TRIPOS>MOLECULE
66Y
   15    16     1     0     0
SMALL
No Charge or Current Charge


@<TRIPOS>ATOM
      1 C1           0.8120     0.2390     1.3150 c5         1 66Y      -0.080400
      2 N1          -0.4230     1.1130    -0.4060 ns         1 66Y      -0.496900
      3 O1          -2.3260    -0.1750    -0.0910 o          1 66Y      -0.528000
      4 C2          -0.0180    -0.8770     0.6210 c5         1 66Y      -0.143500
      5 C3           0.9410    -1.2480    -0.5030 c2         1 66Y      -0.201200
      6 C4           1.5000    -0.1000    -0.9090 c2         1 66Y      -0.267200
      7 C5           0.9940     1.0270    -0.0140 c5         1 66Y       0.109900
      8 C6          -1.1200    -0.0060    -0.0050 c          1 66Y       0.550000
      9 H3           0.2620     0.7940     2.0850 hc         1 66Y       0.067700
     10 H4           1.7580    -0.1160     1.7430 hc         1 66Y       0.067700
     11 H7          -0.9040     1.9000    -0.8230 hn         1 66Y       0.321500
     12 H1          -0.3910    -1.7000     1.2400 hc         1 66Y       0.101700
     13 H5           1.1110    -2.2400    -0.9330 ha         1 66Y       0.205000
     14 H6           2.2280    -0.0010    -1.7180 ha         1 66Y       0.204000
     15 H2           1.5730     1.9620     0.0250 h1         1 66Y       0.090700
@<TRIPOS>BOND
     1     1     4 1   
     2     1     7 1   
     3     1     9 1   
     4     1    10 1   
     5     2     7 1   
     6     2     8 1   
     7     2    11 1   
     8     3     8 2   
     9     4     5 1   
    10     4     8 1   
    11     4    12 1   
    12     5     6 2   
    13     5    13 1   
    14     6     7 1   
    15     6    14 1   
    16     7    15 1   
@<TRIPOS>SUBSTRUCTURE
     1 66Y         1 TEMP              0 ****  ****    0 ROOT
