@<TRIPOS>MOLECULE
66Y
   15    16     1     0     0
SMALL
bcc


@<TRIPOS>ATOM
      1 C1           0.8440     0.2320     1.3360 c5         1 66Y      -0.080400
      2 N1          -0.4640     1.1820    -0.2670 ns         1 66Y      -0.563900
      3 O1          -2.2510    -0.2780    -0.2120 o          1 66Y      -0.603500
      4 C2          -0.0110    -0.8610     0.6650 c5         1 66Y      -0.143500
      5 C3           0.9010    -1.2130    -0.5080 c2         1 66Y      -0.151200
      6 C4           1.5070    -0.0910    -0.8910 c2         1 66Y      -0.217200
      7 C5           0.9690     1.0120     0.0210 c5         1 66Y       0.109900
      8 C6          -1.0950     0.0170     0.0230 c          1 66Y       0.692500
      9 H3           0.3310     0.7920     2.1200 hc         1 66Y       0.067700
     10 H4           1.7930    -0.1490     1.7100 hc         1 66Y       0.067700
     11 H7          -0.7920     1.7980    -0.9950 hn         1 66Y       0.321500
     12 H1          -0.3900    -1.6860     1.2620 hc         1 66Y       0.101700
     13 H5           0.9670    -2.1950    -0.9530 ha         1 66Y       0.155000
     14 H6           2.1880     0.0510    -1.7170 ha         1 66Y       0.154000
     15 H2           1.5000     1.9600     0.0330 h1         1 66Y       0.090700
@<TRIPOS>BOND
     1     1     4 1   
     2     1     7 1   
     3     1     9 1   
     4     1    10 1   
     5     2     7 1   
     6     2     8 1   
     7     2    11 1   
     8     3     8 2   
     9     4     5 1   
    10     4     8 1   
    11     4    12 1   
    12     5     6 2   
    13     5    13 1   
    14     6     7 1   
    15     6    14 1   
    16     7    15 1   
@<TRIPOS>SUBSTRUCTURE
     1 66Y         1 TEMP              0 ****  ****    0 ROOT
