@<TRIPOS>MOLECULE
66Z
   15    16     1     0     0
SMALL
abcg2


@<TRIPOS>ATOM
      1 C1           0.8300     0.1950    -1.3390 c5         1 66Z      -0.080400
      2 N1          -0.4440     1.1490     0.2890 ns         1 66Z      -0.495900
      3 O1          -2.2450    -0.2930     0.2540 o          1 66Z      -0.528000
      4 C2          -0.0260    -0.8930    -0.6610 c5         1 66Z      -0.143500
      5 C3           0.9010    -1.2610     0.4960 c2         1 66Z      -0.202200
      6 C4           1.5240    -0.1470     0.8750 c2         1 66Z      -0.268200
      7 C5           0.9830     0.9670    -0.0220 c5         1 66Z       0.108900
      8 C6          -1.0900    -0.0080     0.0030 c          1 66Z       0.550000
      9 H3           1.7690    -0.1930    -1.7300 hc         1 66Z       0.067700
     10 H4           0.3100     0.7640    -2.1110 hc         1 66Z       0.067700
     11 H1          -0.4210    -1.7120    -1.2560 hc         1 66Z       0.101700
     12 H5           0.9640    -2.2460     0.9340 ha         1 66Z       0.205000
     13 H6           2.2190    -0.0170     1.6920 ha         1 66Z       0.204000
     14 H2           1.5230     1.9090    -0.0370 h1         1 66Z       0.090700
     15 H7          -0.7520     1.7610     1.0290 hn         1 66Z       0.321500
@<TRIPOS>BOND
     1     1     4 1   
     2     1     7 1   
     3     1     9 1   
     4     1    10 1   
     5     2     7 1   
     6     2     8 1   
     7     2    15 1   
     8     3     8 2   
     9     4     5 1   
    10     4     8 1   
    11     4    11 1   
    12     5     6 2   
    13     5    12 1   
    14     6     7 1   
    15     6    13 1   
    16     7    14 1   
@<TRIPOS>SUBSTRUCTURE
     1 66Z         1 TEMP              0 ****  ****    0 ROOT
