@<TRIPOS>MOLECULE
66Z
   15    16     1     0     0
SMALL
No Charge or Current Charge


@<TRIPOS>ATOM
      1 C1           0.7990     0.2030    -1.3170 c5         1 66Z      -0.080400
      2 N1          -0.4010     1.0780     0.4280 ns         1 66Z      -0.495900
      3 O1          -2.3210    -0.1880     0.1350 o          1 66Z      -0.528000
      4 C2          -0.0320    -0.9100    -0.6160 c5         1 66Z      -0.143500
      5 C3           0.9410    -1.2970     0.4900 c2         1 66Z      -0.202200
      6 C4           1.5180    -0.1570     0.8930 c2         1 66Z      -0.268200
      7 C5           1.0090     0.9810     0.0130 c5         1 66Z       0.108900
      8 C6          -1.1150    -0.0320     0.0320 c          1 66Z       0.550000
      9 H3           1.7340    -0.1600    -1.7620 hc         1 66Z       0.067700
     10 H4           0.2420     0.7670    -2.0760 hc         1 66Z       0.067700
     11 H1          -0.4230    -1.7250    -1.2350 hc         1 66Z       0.101700
     12 H5           1.1080    -2.2930     0.9110 ha         1 66Z       0.205000
     13 H6           2.2590    -0.0700     1.6910 ha         1 66Z       0.204000
     14 H2           1.5970     1.9100    -0.0290 h1         1 66Z       0.090700
     15 H7          -0.8680     1.8680     0.8570 hn         1 66Z       0.321500
@<TRIPOS>BOND
     1     1     4 1   
     2     1     7 1   
     3     1     9 1   
     4     1    10 1   
     5     2     7 1   
     6     2     8 1   
     7     2    15 1   
     8     3     8 2   
     9     4     5 1   
    10     4     8 1   
    11     4    11 1   
    12     5     6 2   
    13     5    12 1   
    14     6     7 1   
    15     6    13 1   
    16     7    14 1   
@<TRIPOS>SUBSTRUCTURE
     1 66Z         1 TEMP              0 ****  ****    0 ROOT
