@<TRIPOS>MOLECULE
671
   56    59     1     0     0
SMALL
abcg2


@<TRIPOS>ATOM
      1 CAJ         -5.8290    -0.7520    -0.9260 ca         1 671      -0.053000
      2 CAH         -6.6740    -1.8450    -0.8590 ca         1 671      -0.182500
      3 CAX         -7.5970    -1.9740     0.1890 ca         1 671       0.296000
      4 NAA         -8.4060    -3.0860     0.2880 nv         1 671      -1.069000
      5 CAI         -7.6330    -0.9640     1.1560 ca         1 671      -0.182500
      6 CAK         -6.7770     0.1230     1.0750 ca         1 671      -0.053000
      7 CAY         -5.8630     0.2560     0.0360 ca         1 671      -0.160300
      8 CAR         -4.9360     1.4360    -0.0450 c3         1 671       0.168300
      9 NAU         -3.5650     1.0190     0.1750 ns         1 671      -0.514900
     10 CAV         -2.5220     1.8510    -0.0930 c          1 671       0.652100
     11 OAB         -2.6620     2.9210    -0.6790 o          1 671      -0.658100
     12 N           -1.3100     1.4000     0.3110 ns         1 671      -0.525900
     13 CA          -0.1170     2.1610     0.0900 c3         1 671       0.044000
     14 C            1.0940     1.3160     0.4490 c          1 671       0.589100
     15 O            0.9740     0.2190     0.9780 o          1 671      -0.602100
     16 NBD          2.2900     1.8410     0.1450 n          1 671      -0.414800
     17 CAS          2.5380     3.1950    -0.3360 c5         1 671       0.101000
     18 CAO          3.9090     3.5080     0.2430 c5         1 671      -0.096400
     19 CAQ          4.6230     2.1640     0.1740 c5         1 671      -0.090400
     20 CBC          3.5210     1.1290     0.4740 c5         1 671       0.157000
     21 CAZ          3.7180    -0.1410    -0.3200 ca         1 671      -0.070300
     22 CBB          4.6040    -1.1500     0.1600 ca         1 671      -0.018000
     23 CAN          5.2930    -1.0480     1.3950 ca         1 671      -0.104000
     24 CAE          6.1360    -2.0380     1.8210 ca         1 671      -0.107000
     25 CAD          6.3440    -3.1900     1.0370 ca         1 671      -0.109000
     26 CAL          5.6990    -3.3200    -0.1610 ca         1 671      -0.096000
     27 CBA          4.8220    -2.3130    -0.6300 ca         1 671      -0.036000
     28 CAM          4.1660    -2.4460    -1.8740 ca         1 671      -0.097000
     29 CAF          3.3300    -1.4610    -2.3180 ca         1 671      -0.106000
     30 CAG          3.1110    -0.3100    -1.5380 ca         1 671      -0.089000
     31 H1          -5.1300    -0.6820    -1.7520 ha         1 671       0.114000
     32 H2          -6.6240    -2.6100    -1.6260 ha         1 671       0.112500
     33 H3          -8.5850    -3.5720    -0.5760 hn         1 671       0.447500
     34 H4          -9.2520    -2.9610     0.8210 hn         1 671       0.447500
     35 H5          -8.3360    -1.0340     1.9780 ha         1 671       0.112500
     36 H6          -6.8300     0.8870     1.8420 ha         1 671       0.114000
     37 H7          -5.0020     1.8970    -1.0320 h1         1 671       0.053200
     38 H8          -5.2460     2.1970     0.6800 h1         1 671       0.053200
     39 H9          -3.4240     0.2620     0.8250 hn         1 671       0.308500
     40 H10         -1.2100     0.5180     0.7900 hn         1 671       0.339500
     41 H11         -0.0390     2.4820    -0.9520 h1         1 671       0.063700
     42 H12         -0.0990     3.0750     0.6970 h1         1 671       0.063700
     43 H13          2.5510     3.2250    -1.4300 h1         1 671       0.052700
     44 H14          1.7750     3.8900     0.0110 h1         1 671       0.052700
     45 H15          4.4240     4.2900    -0.3140 hc         1 671       0.056700
     46 H16          3.8080     3.8390     1.2790 hc         1 671       0.056700
     47 H17          5.0220     2.0000    -0.8290 hc         1 671       0.060200
     48 H18          5.4520     2.0820     0.8760 hc         1 671       0.060200
     49 H19          3.5050     0.8970     1.5420 h1         1 671       0.072700
     50 H20          5.1630    -0.1790     2.0270 ha         1 671       0.109000
     51 H21          6.6490    -1.9360     2.7690 ha         1 671       0.111000
     52 H22          7.0130    -3.9660     1.3850 ha         1 671       0.113000
     53 H23          5.8520    -4.2010    -0.7740 ha         1 671       0.112000
     54 H24          4.3370    -3.3350    -2.4700 ha         1 671       0.113000
     55 H25          2.8300    -1.5580    -3.2720 ha         1 671       0.113000
     56 H26          2.4430     0.4530    -1.9190 ha         1 671       0.114000
@<TRIPOS>BOND
     1     1     2 ar  
     2     1     7 ar  
     3     1    31 1   
     4     2     3 ar  
     5     2    32 1   
     6     3     4 1   
     7     3     5 ar  
     8     4    33 1   
     9     4    34 1   
    10     5     6 ar  
    11     5    35 1   
    12     6     7 ar  
    13     6    36 1   
    14     7     8 1   
    15     8     9 1   
    16     8    37 1   
    17     8    38 1   
    18     9    10 1   
    19     9    39 1   
    20    10    11 2   
    21    10    12 1   
    22    12    13 1   
    23    12    40 1   
    24    13    14 1   
    25    13    41 1   
    26    13    42 1   
    27    14    15 2   
    28    14    16 1   
    29    16    17 1   
    30    16    20 1   
    31    17    18 1   
    32    17    43 1   
    33    17    44 1   
    34    18    19 1   
    35    18    45 1   
    36    18    46 1   
    37    19    20 1   
    38    19    47 1   
    39    19    48 1   
    40    20    21 1   
    41    20    49 1   
    42    21    22 ar  
    43    21    30 ar  
    44    22    23 ar  
    45    22    27 ar  
    46    23    24 ar  
    47    23    50 1   
    48    24    25 ar  
    49    24    51 1   
    50    25    26 ar  
    51    25    52 1   
    52    26    27 ar  
    53    26    53 1   
    54    27    28 ar  
    55    28    29 ar  
    56    28    54 1   
    57    29    30 ar  
    58    29    55 1   
    59    30    56 1   
@<TRIPOS>SUBSTRUCTURE
     1 671         1 TEMP              0 ****  ****    0 ROOT
