@<TRIPOS>MOLECULE
671
   56    59     1     0     0
SMALL
No Charge or Current Charge


@<TRIPOS>ATOM
      1 CAJ         -6.0850    -0.8990    -1.1110 ca         1 671      -0.053000
      2 CAH         -6.8940    -1.9990    -0.7750 ca         1 671      -0.182500
      3 CAX         -7.4770    -2.0820     0.4970 ca         1 671       0.296000
      4 NAA         -8.2640    -3.1520     0.8210 nv         1 671      -1.069000
      5 CAI         -7.2530    -1.0660     1.4360 ca         1 671      -0.182500
      6 CAK         -6.4450     0.0370     1.1060 ca         1 671      -0.053000
      7 CAY         -5.8580     0.1260    -0.1720 ca         1 671      -0.160300
      8 CAR         -4.9830     1.3150    -0.5310 c3         1 671       0.168300
      9 NAU         -3.5890     1.0540    -0.1960 ns         1 671      -0.514900
     10 CAV         -2.5750     1.9420    -0.4060 c          1 671       0.652100
     11 OAB         -2.7340     3.0470    -0.8950 o          1 671      -0.658100
     12 N           -1.3600     1.4640    -0.0090 ns         1 671      -0.525900
     13 CA          -0.0900     2.2160    -0.1200 c3         1 671       0.044000
     14 C            1.1280     1.3990     0.3900 c          1 671       0.589100
     15 O            0.9900     0.2800     0.8770 o          1 671      -0.602100
     16 NBD          2.4080     1.9750     0.2540 n          1 671      -0.414800
     17 CAS          2.6320     3.4020    -0.0700 c5         1 671       0.101000
     18 CAO          4.0580     3.6330     0.4940 c5         1 671      -0.096400
     19 CAQ          4.7500     2.2860     0.1760 c5         1 671      -0.090400
     20 CBC          3.6600     1.2650     0.6120 c5         1 671       0.157000
     21 CAZ          3.8540     0.0100    -0.2700 ca         1 671      -0.070300
     22 CBB          4.5120    -1.1610     0.2120 ca         1 671      -0.018000
     23 CAN          5.0540    -1.2370     1.5200 ca         1 671      -0.104000
     24 CAE          5.6910    -2.4060     1.9690 ca         1 671      -0.107000
     25 CAD          5.8040    -3.5190     1.1240 ca         1 671      -0.109000
     26 CAL          5.2850    -3.4600    -0.1770 ca         1 671      -0.096000
     27 CBA          4.6470    -2.2920    -0.6370 ca         1 671      -0.036000
     28 CAM          4.1540    -2.2600    -1.9510 ca         1 671      -0.097000
     29 CAF          3.5340    -1.1050    -2.4380 ca         1 671      -0.106000
     30 CAG          3.3900     0.0160    -1.6090 ca         1 671      -0.089000
     31 H1          -5.6340    -0.8430    -2.1010 ha         1 671       0.114000
     32 H2          -7.0630    -2.7840    -1.5060 ha         1 671       0.112500
     33 H3          -8.5450    -3.8110     0.0970 hn         1 671       0.447500
     34 H4          -8.8030    -3.1430     1.6850 hn         1 671       0.447500
     35 H5          -7.7010    -1.1260     2.4240 ha         1 671       0.112500
     36 H6          -6.2740     0.8200     1.8420 ha         1 671       0.114000
     37 H7          -5.0590     1.5240    -1.6070 h1         1 671       0.053200
     38 H8          -5.3210     2.2070     0.0140 h1         1 671       0.053200
     39 H9          -3.3560     0.1610     0.2160 hn         1 671       0.308500
     40 H10         -1.3280     0.5330     0.3880 hn         1 671       0.339500
     41 H11          0.0880     2.4830    -1.1690 h1         1 671       0.063700
     42 H12         -0.1640     3.1370     0.4710 h1         1 671       0.063700
     43 H13          2.5970     3.5610    -1.1570 h1         1 671       0.052700
     44 H14          1.9010     4.0690     0.4060 h1         1 671       0.052700
     45 H15          4.5590     4.4900     0.0300 hc         1 671       0.056700
     46 H16          4.0280     3.8160     1.5750 hc         1 671       0.056700
     47 H17          4.9830     2.2170    -0.8930 hc         1 671       0.060200
     48 H18          5.6890     2.1500     0.7230 hc         1 671       0.060200
     49 H19          3.6700     1.0670     1.6900 h1         1 671       0.072700
     50 H20          5.0060    -0.4010     2.2080 ha         1 671       0.109000
     51 H21          6.1000    -2.4470     2.9760 ha         1 671       0.111000
     52 H22          6.2970    -4.4230     1.4750 ha         1 671       0.113000
     53 H23          5.3830    -4.3240    -0.8300 ha         1 671       0.112000
     54 H24          4.2600    -3.1260    -2.6000 ha         1 671       0.113000
     55 H25          3.1630    -1.0760    -3.4600 ha         1 671       0.113000
     56 H26          2.9110     0.9010    -2.0210 ha         1 671       0.114000
@<TRIPOS>BOND
     1     1     2 ar  
     2     1     7 ar  
     3     1    31 1   
     4     2     3 ar  
     5     2    32 1   
     6     3     4 1   
     7     3     5 ar  
     8     4    33 1   
     9     4    34 1   
    10     5     6 ar  
    11     5    35 1   
    12     6     7 ar  
    13     6    36 1   
    14     7     8 1   
    15     8     9 1   
    16     8    37 1   
    17     8    38 1   
    18     9    10 1   
    19     9    39 1   
    20    10    11 2   
    21    10    12 1   
    22    12    13 1   
    23    12    40 1   
    24    13    14 1   
    25    13    41 1   
    26    13    42 1   
    27    14    15 2   
    28    14    16 1   
    29    16    17 1   
    30    16    20 1   
    31    17    18 1   
    32    17    43 1   
    33    17    44 1   
    34    18    19 1   
    35    18    45 1   
    36    18    46 1   
    37    19    20 1   
    38    19    47 1   
    39    19    48 1   
    40    20    21 1   
    41    20    49 1   
    42    21    22 ar  
    43    21    30 ar  
    44    22    23 ar  
    45    22    27 ar  
    46    23    24 ar  
    47    23    50 1   
    48    24    25 ar  
    49    24    51 1   
    50    25    26 ar  
    51    25    52 1   
    52    26    27 ar  
    53    26    53 1   
    54    27    28 ar  
    55    28    29 ar  
    56    28    54 1   
    57    29    30 ar  
    58    29    55 1   
    59    30    56 1   
@<TRIPOS>SUBSTRUCTURE
     1 671         1 TEMP              0 ****  ****    0 ROOT
