@<TRIPOS>MOLECULE
672
  103   106     1     0     0
SMALL
bcc


@<TRIPOS>ATOM
      1 C2           0.3580     3.5580     2.5040 c3         1 672      -0.024400
      2 C4           0.2590     3.5430     4.0280 c3         1 672      -0.086600
      3 C3          -0.6940     2.6940     1.8570 ca         1 672      -0.018300
      4 C9          -1.5060     3.1960     0.8560 ca         1 672      -0.159000
      5 C8          -2.4820     2.4350     0.2220 ca         1 672       0.021700
      6 C13         -3.2820     3.1540    -0.8560 c3         1 672      -0.032400
      7 C15         -4.3210     4.0750    -0.2140 c3         1 672      -0.082350
      8 C14         -2.3860     3.9450    -1.8120 c3         1 672      -0.082350
      9 C7          -2.6490     1.0980     0.6430 ca         1 672      -0.281500
     10 S16         -4.0080     0.1500    -0.0680 sy         1 672       1.276200
     11 N19         -3.5180    -0.2760    -1.5890 n7         1 672      -0.805100
     12 C20         -2.1710    -0.7800    -1.7770 c3         1 672       0.143500
     13 C23         -2.1840    -2.1660    -2.4440 c3         1 672      -0.019100
     14 C24         -2.8820    -3.1520    -1.5540 ca         1 672      -0.096300
     15 C29         -2.2180    -3.6820    -0.4550 ca         1 672      -0.085000
     16 C28         -2.8750    -4.4940     0.4640 ca         1 672      -0.139900
     17 C30         -2.1350    -4.9890     1.6560 ce         1 672       0.668800
     18 N32         -2.9080    -5.2050     2.7620 nv         1 672      -0.967800
     19 N31         -0.8790    -5.2010     1.5590 n2         1 672      -0.845100
     20 C27         -4.2130    -4.8160     0.2470 ca         1 672      -0.093000
     21 C26         -4.8740    -4.3210    -0.8670 ca         1 672      -0.125000
     22 C25         -4.2180    -3.4820    -1.7550 ca         1 672      -0.082000
     23 C21         -1.3950     0.2310    -2.6280 c          1 672       0.651100
     24 N33         -0.0610     0.3100    -2.4880 n          1 672      -0.465800
     25 C38          0.7070     1.2800    -3.2590 c6         1 672       0.070500
     26 C37          1.5270     2.1580    -2.3240 c6         1 672       0.073500
     27 N36          2.3630     1.3360    -1.4680 n          1 672      -0.482800
     28 C39          3.7130     1.3250    -1.6230 c          1 672       0.675100
     29 C41          4.5250     0.3830    -0.7470 c6         1 672      -0.135700
     30 C46          5.9150     0.1300    -1.3290 c6         1 672      -0.101400
     31 C45          6.7300    -0.7420    -0.3820 c6         1 672       0.209300
     32 N44          6.8350    -0.1550     0.9420 nh         1 672      -0.739600
     33 C47          7.8600     0.7400     1.1710 c2         1 672       0.782100
     34 N49          7.8480     1.3170     2.4270 nv         1 672      -0.947800
     35 N48          8.7220     0.9920     0.2570 n2         1 672      -0.880100
     36 C43          5.5250     0.0470     1.5380 c6         1 672       0.209300
     37 C42          4.6490     0.9500     0.6750 c6         1 672      -0.101400
     38 O40          4.2660     2.0800    -2.4090 o          1 672      -0.588100
     39 C35          1.5810     0.4030    -0.6840 c6         1 672       0.073500
     40 C34          0.7590    -0.4950    -1.6010 c6         1 672       0.070500
     41 O22         -2.0220     0.9150    -3.4260 o          1 672      -0.607100
     42 O18         -4.1980    -1.0680     0.6940 o          1 672      -0.603800
     43 O17         -5.1780     0.9960    -0.2450 o          1 672      -0.603800
     44 C6          -1.7790     0.5230     1.6010 ca         1 672       0.021700
     45 C10         -1.7490    -0.9330     2.0540 c3         1 672      -0.032400
     46 C12         -0.3260    -1.4720     2.2140 c3         1 672      -0.082350
     47 C11         -2.5300    -1.1100     3.3560 c3         1 672      -0.082350
     48 C5          -0.8400     1.3580     2.1960 ca         1 672      -0.159000
     49 C1           1.7530     3.1330     2.0410 c3         1 672      -0.086600
     50 H2           0.1930     4.5850     2.1660 hc         1 672       0.056700
     51 H41A         0.9860     4.2330     4.4600 hc         1 672       0.037867
     52 H42         -0.7330     3.8450     4.3670 hc         1 672       0.037867
     53 H43          0.4670     2.5520     4.4360 hc         1 672       0.037867
     54 H9          -1.3740     4.2290     0.5610 ha         1 672       0.134500
     55 H13         -3.8140     2.4400    -1.4760 hc         1 672       0.070200
     56 H151        -3.8400     4.8490     0.3890 hc         1 672       0.038533
     57 H152        -4.9120     4.5740    -0.9840 hc         1 672       0.038533
     58 H153        -5.0040     3.5230     0.4290 hc         1 672       0.038533
     59 H141        -1.5950     3.3230    -2.2300 hc         1 672       0.038533
     60 H142        -2.9880     4.3140    -2.6440 hc         1 672       0.038533
     61 H143        -1.9250     4.8130    -1.3410 hc         1 672       0.038533
     62 HN19        -3.7960     0.3900    -2.3050 hn         1 672       0.457800
     63 H20         -1.7030    -0.8900    -0.7980 h1         1 672       0.065700
     64 H231        -2.6790    -2.0900    -3.4140 hc         1 672       0.062200
     65 H232        -1.1560    -2.4830    -2.6340 hc         1 672       0.062200
     66 H29         -1.1750    -3.4410    -0.2820 ha         1 672       0.136000
     67 H321        -3.7570    -4.6740     2.8640 hn         1 672       0.409300
     68 H322        -2.4350    -5.3890     3.6320 hn         1 672       0.409300
     69 HN31        -0.4840    -5.4920     2.4500 hn         1 672       0.367400
     70 H27         -4.7410    -5.4680     0.9310 ha         1 672       0.135000
     71 H26         -5.9090    -4.5850    -1.0390 ha         1 672       0.134000
     72 H25         -4.7490    -3.0780    -2.6070 ha         1 672       0.135000
     73 H381         1.3720     0.7480    -3.9470 h1         1 672       0.066950
     74 H382         0.0330     1.8930    -3.8500 h1         1 672       0.066950
     75 H371         2.1420     2.8410    -2.9010 h1         1 672       0.068950
     76 H372         0.8580     2.7560    -1.6960 h1         1 672       0.068950
     77 H41          4.0170    -0.5860    -0.6850 hc         1 672       0.051700
     78 H461         5.8340    -0.3650    -2.3000 hc         1 672       0.064450
     79 H462         6.4410     1.0720    -1.4880 hc         1 672       0.064450
     80 H451         6.2520    -1.7210    -0.2700 h1         1 672       0.057950
     81 H452         7.7270    -0.9100    -0.7810 h1         1 672       0.057950
     82 H491         7.5660     0.7190     3.1890 hn         1 672       0.393800
     83 H492         8.6910     1.8180     2.6570 hn         1 672       0.393800
     84 HN48         9.4730     1.5670     0.6220 hn         1 672       0.378400
     85 H431         5.0480    -0.9320     1.6430 h1         1 672       0.057950
     86 H432         5.6060     0.4600     2.5400 h1         1 672       0.057950
     87 H421         5.0830     1.9530     0.6320 hc         1 672       0.064450
     88 H422         3.6700     1.0530     1.1490 hc         1 672       0.064450
     89 H351         2.2050    -0.2110    -0.0430 h1         1 672       0.068950
     90 H352         0.9050     0.9650    -0.0290 h1         1 672       0.068950
     91 H341         0.1540    -1.1630    -0.9960 h1         1 672       0.066950
     92 H342         1.4280    -1.1240    -2.1970 h1         1 672       0.066950
     93 H10         -2.2250    -1.5590     1.3080 hc         1 672       0.070200
     94 H121         0.1970    -1.0610     3.0780 hc         1 672       0.038533
     95 H122        -0.3690    -2.5540     2.3490 hc         1 672       0.038533
     96 H123         0.2930    -1.2840     1.3340 hc         1 672       0.038533
     97 H111        -2.0600    -0.5630     4.1750 hc         1 672       0.038533
     98 H112        -3.5570    -0.7630     3.2580 hc         1 672       0.038533
     99 H113        -2.5580    -2.1660     3.6350 hc         1 672       0.038533
    100 H5          -0.1890     0.9390     2.9520 ha         1 672       0.134500
    101 H11          1.9810     2.1160     2.3690 hc         1 672       0.037867
    102 H12          1.8410     3.1600     0.9540 hc         1 672       0.037867
    103 H13A         2.5160     3.7920     2.4570 hc         1 672       0.037867
@<TRIPOS>BOND
     1     1     2 1   
     2     1     3 1   
     3     1    49 1   
     4     1    50 1   
     5     2    51 1   
     6     2    52 1   
     7     2    53 1   
     8     3     4 ar  
     9     3    48 ar  
    10     4     5 ar  
    11     4    54 1   
    12     5     6 1   
    13     5     9 ar  
    14     6     7 1   
    15     6     8 1   
    16     6    55 1   
    17     7    56 1   
    18     7    57 1   
    19     7    58 1   
    20     8    59 1   
    21     8    60 1   
    22     8    61 1   
    23     9    10 1   
    24     9    44 ar  
    25    10    11 1   
    26    10    42 2   
    27    10    43 2   
    28    11    12 1   
    29    11    62 1   
    30    12    13 1   
    31    12    23 1   
    32    12    63 1   
    33    13    14 1   
    34    13    64 1   
    35    13    65 1   
    36    14    15 ar  
    37    14    22 ar  
    38    15    16 ar  
    39    15    66 1   
    40    16    17 1   
    41    16    20 ar  
    42    17    18 1   
    43    17    19 2   
    44    18    67 1   
    45    18    68 1   
    46    19    69 1   
    47    20    21 ar  
    48    20    70 1   
    49    21    22 ar  
    50    21    71 1   
    51    22    72 1   
    52    23    24 1   
    53    23    41 2   
    54    24    25 1   
    55    24    40 1   
    56    25    26 1   
    57    25    73 1   
    58    25    74 1   
    59    26    27 1   
    60    26    75 1   
    61    26    76 1   
    62    27    28 1   
    63    27    39 1   
    64    28    29 1   
    65    28    38 2   
    66    29    30 1   
    67    29    37 1   
    68    29    77 1   
    69    30    31 1   
    70    30    78 1   
    71    30    79 1   
    72    31    32 1   
    73    31    80 1   
    74    31    81 1   
    75    32    33 1   
    76    32    36 1   
    77    33    34 1   
    78    33    35 2   
    79    34    82 1   
    80    34    83 1   
    81    35    84 1   
    82    36    37 1   
    83    36    85 1   
    84    36    86 1   
    85    37    87 1   
    86    37    88 1   
    87    39    40 1   
    88    39    89 1   
    89    39    90 1   
    90    40    91 1   
    91    40    92 1   
    92    44    45 1   
    93    44    48 ar  
    94    45    46 1   
    95    45    47 1   
    96    45    93 1   
    97    46    94 1   
    98    46    95 1   
    99    46    96 1   
   100    47    97 1   
   101    47    98 1   
   102    47    99 1   
   103    48   100 1   
   104    49   101 1   
   105    49   102 1   
   106    49   103 1   
@<TRIPOS>SUBSTRUCTURE
     1 672         1 TEMP              0 ****  ****    0 ROOT
