@<TRIPOS>MOLECULE
672
  103   106     1     0     0
SMALL
No Charge or Current Charge


@<TRIPOS>ATOM
      1 C2           0.4760     3.2470     2.3890 c3         1 672      -0.024400
      2 C4           0.1550     3.4110     3.8930 c3         1 672      -0.086600
      3 C3          -0.7040     2.6510     1.6100 ca         1 672      -0.018300
      4 C9          -1.2280     3.3270     0.5100 ca         1 672      -0.141000
      5 C8          -2.3470     2.8510    -0.2130 ca         1 672       0.021700
      6 C13         -2.8500     3.7620    -1.3680 c3         1 672      -0.032400
      7 C15         -4.0280     4.6500    -0.8930 c3         1 672      -0.082350
      8 C14         -1.7770     4.6630    -2.0380 c3         1 672      -0.082350
      9 C7          -2.9840     1.6210     0.2090 ca         1 672      -0.281500
     10 S16         -4.5500     0.9870    -0.5610 sy         1 672       1.134600
     11 N19         -4.1150    -0.4460    -1.3040 n7         1 672      -0.860300
     12 C20         -2.6810    -0.8030    -1.5420 c3         1 672       0.143500
     13 C23         -2.5940    -2.2700    -2.0380 c3         1 672      -0.019100
     14 C24         -2.7350    -3.2850    -0.9040 ca         1 672      -0.096300
     15 C29         -1.5990    -3.9530    -0.4060 ca         1 672      -0.067000
     16 C28         -1.7000    -4.8750     0.6620 ca         1 672      -0.139900
     17 C30         -0.4790    -5.5930     1.1600 ce         1 672       0.668800
     18 N32         -0.5080    -6.1240     2.4000 nv         1 672      -1.078200
     19 N31          0.6120    -5.6480     0.5150 n2         1 672      -0.845100
     20 C27         -2.9830    -5.1450     1.1970 ca         1 672      -0.075000
     21 C26         -4.1180    -4.4840     0.7010 ca         1 672      -0.107000
     22 C25         -3.9960    -3.5550    -0.3430 ca         1 672      -0.064000
     23 C21         -1.9080     0.1550    -2.5140 c          1 672       0.584100
     24 N33         -0.5560     0.4640    -2.2160 n          1 672      -0.398800
     25 C38          0.1830     1.4320    -3.0620 c6         1 672       0.070500
     26 C37          1.3840     2.0830    -2.3360 c6         1 672       0.073500
     27 N36          2.3030     1.1160    -1.6720 n          1 672      -0.415800
     28 C39          3.5860     1.5670    -1.2720 c          1 672       0.608100
     29 C41          4.6110     0.5500    -0.7020 c6         1 672      -0.135700
     30 C46          6.0560     0.7240    -1.2520 c6         1 672      -0.101400
     31 C45          7.0250    -0.3180    -0.6300 c6         1 672       0.209300
     32 N44          6.9700    -0.2840     0.8600 nh         1 672      -0.739600
     33 C47          7.7710     0.5520     1.5630 c2         1 672       0.782100
     34 N49          8.1790     0.0100     2.6930 nv         1 672      -1.058200
     35 N48          8.2770     1.5960     1.0960 n2         1 672      -0.880100
     36 C43          5.6020    -0.5870     1.3660 c6         1 672       0.209300
     37 C42          4.5850     0.4620     0.8510 c6         1 672      -0.101400
     38 O40          3.9030     2.7420    -1.4080 o          1 672      -0.588100
     39 C35          1.5750     0.0800    -0.8810 c6         1 672       0.073500
     40 C34          0.3560    -0.5410    -1.6000 c6         1 672       0.070500
     41 O22         -2.4800     0.6830    -3.4630 o          1 672      -0.607100
     42 O18         -5.4890     0.5950     0.4920 o          1 672      -0.533000
     43 O17         -4.9990     1.8070    -1.6810 o          1 672      -0.533000
     44 C6          -2.4210     0.9180     1.3390 ca         1 672       0.021700
     45 C10         -2.9820    -0.3980     1.9460 c3         1 672      -0.032400
     46 C12         -1.8900    -1.4710     2.2060 c3         1 672      -0.082350
     47 C11         -3.7770    -0.1100     3.2400 c3         1 672      -0.082350
     48 C5          -1.2970     1.4520     2.0020 ca         1 672      -0.141000
     49 C1           1.7690     2.4350     2.1680 c3         1 672      -0.086600
     50 H2           0.6750     4.2570     2.0100 hc         1 672       0.056700
     51 H41A         0.9620     3.9530     4.4010 hc         1 672       0.037867
     52 H42         -0.7720     3.9810     4.0270 hc         1 672       0.037867
     53 H43          0.0380     2.4400     4.3870 hc         1 672       0.037867
     54 H9          -0.7610     4.2680     0.2460 ha         1 672       0.116500
     55 H13         -3.1740     3.1360    -2.2010 hc         1 672       0.070200
     56 H151        -3.6810     5.3870    -0.1580 hc         1 672       0.038533
     57 H152        -4.4710     5.1910    -1.7370 hc         1 672       0.038533
     58 H153        -4.8170     4.0600    -0.4150 hc         1 672       0.038533
     59 H141        -0.8660     4.1000    -2.2580 hc         1 672       0.038533
     60 H142        -2.1580     5.0650    -2.9850 hc         1 672       0.038533
     61 H143        -1.5120     5.5200    -1.4070 hc         1 672       0.038533
     62 HN19        -4.5560    -0.2780    -2.2090 hn         1 672       0.513000
     63 H20         -2.1450    -0.7660    -0.5920 h1         1 672       0.065700
     64 H231        -3.3570    -2.4450    -2.8060 hc         1 672       0.062200
     65 H232        -1.6340    -2.4230    -2.5450 hc         1 672       0.062200
     66 H29         -0.6250    -3.7430    -0.8430 ha         1 672       0.118000
     67 H321        -1.2710    -5.7990     2.9830 hn         1 672       0.464500
     68 H322         0.3850    -6.2060     2.8710 hn         1 672       0.464500
     69 HN31         1.2050    -6.3580     0.9590 hn         1 672       0.367400
     70 H27         -3.1130    -5.8750     1.9930 ha         1 672       0.117000
     71 H26         -5.0970    -4.6950     1.1240 ha         1 672       0.116000
     72 H25         -4.8820    -3.0470    -0.7170 ha         1 672       0.117000
     73 H381         0.5520     0.9050    -3.9530 h1         1 672       0.066950
     74 H382        -0.4930     2.2220    -3.4150 h1         1 672       0.066950
     75 H371         1.9440     2.6860    -3.0660 h1         1 672       0.068950
     76 H372         1.0010     2.7740    -1.5710 h1         1 672       0.068950
     77 H41          4.2690    -0.4360    -1.0390 hc         1 672       0.051700
     78 H461         6.0600     0.6240    -2.3460 hc         1 672       0.064450
     79 H462         6.4200     1.7360    -1.0310 hc         1 672       0.064450
     80 H451         6.7270    -1.3160    -0.9840 h1         1 672       0.057950
     81 H452         8.0500    -0.1500    -0.9930 h1         1 672       0.057950
     82 H491         7.8870    -0.9560     2.7120 hn         1 672       0.449000
     83 H492         9.1680     0.1330     2.8550 hn         1 672       0.449000
     84 HN48         8.8890     1.9810     1.8200 hn         1 672       0.378400
     85 H431         5.2880    -1.5800     1.0110 h1         1 672       0.057950
     86 H432         5.5790    -0.6220     2.4650 h1         1 672       0.057950
     87 H421         4.8230     1.4440     1.2830 hc         1 672       0.064450
     88 H422         3.5810     0.1990     1.2090 hc         1 672       0.064450
     89 H351         2.2410    -0.7400    -0.5900 h1         1 672       0.068950
     90 H352         1.2160     0.5440     0.0480 h1         1 672       0.068950
     91 H341        -0.1670    -1.1770    -0.8760 h1         1 672       0.066950
     92 H342         0.7240    -1.2040    -2.3960 h1         1 672       0.066950
     93 H10         -3.6680    -0.8950     1.2590 hc         1 672       0.070200
     94 H121        -1.2620    -1.2200     3.0670 hc         1 672       0.038533
     95 H122        -2.3570    -2.4410     2.4160 hc         1 672       0.038533
     96 H123        -1.2410    -1.5930     1.3320 hc         1 672       0.038533
     97 H111        -3.1220     0.2970     4.0200 hc         1 672       0.038533
     98 H112        -4.5730     0.6190     3.0540 hc         1 672       0.038533
     99 H113        -4.2380    -1.0270     3.6240 hc         1 672       0.038533
    100 H5          -0.8900     0.9430     2.8690 ha         1 672       0.116500
    101 H11          1.6430     1.3960     2.4940 hc         1 672       0.037867
    102 H12          2.0390     2.4380     1.1060 hc         1 672       0.037867
    103 H13A         2.6040     2.8740     2.7270 hc         1 672       0.037867
@<TRIPOS>BOND
     1     1     2 1   
     2     1     3 1   
     3     1    49 1   
     4     1    50 1   
     5     2    51 1   
     6     2    52 1   
     7     2    53 1   
     8     3     4 ar  
     9     3    48 ar  
    10     4     5 ar  
    11     4    54 1   
    12     5     6 1   
    13     5     9 ar  
    14     6     7 1   
    15     6     8 1   
    16     6    55 1   
    17     7    56 1   
    18     7    57 1   
    19     7    58 1   
    20     8    59 1   
    21     8    60 1   
    22     8    61 1   
    23     9    10 1   
    24     9    44 ar  
    25    10    11 1   
    26    10    42 2   
    27    10    43 2   
    28    11    12 1   
    29    11    62 1   
    30    12    13 1   
    31    12    23 1   
    32    12    63 1   
    33    13    14 1   
    34    13    64 1   
    35    13    65 1   
    36    14    15 ar  
    37    14    22 ar  
    38    15    16 ar  
    39    15    66 1   
    40    16    17 1   
    41    16    20 ar  
    42    17    18 1   
    43    17    19 2   
    44    18    67 1   
    45    18    68 1   
    46    19    69 1   
    47    20    21 ar  
    48    20    70 1   
    49    21    22 ar  
    50    21    71 1   
    51    22    72 1   
    52    23    24 1   
    53    23    41 2   
    54    24    25 1   
    55    24    40 1   
    56    25    26 1   
    57    25    73 1   
    58    25    74 1   
    59    26    27 1   
    60    26    75 1   
    61    26    76 1   
    62    27    28 1   
    63    27    39 1   
    64    28    29 1   
    65    28    38 2   
    66    29    30 1   
    67    29    37 1   
    68    29    77 1   
    69    30    31 1   
    70    30    78 1   
    71    30    79 1   
    72    31    32 1   
    73    31    80 1   
    74    31    81 1   
    75    32    33 1   
    76    32    36 1   
    77    33    34 1   
    78    33    35 2   
    79    34    82 1   
    80    34    83 1   
    81    35    84 1   
    82    36    37 1   
    83    36    85 1   
    84    36    86 1   
    85    37    87 1   
    86    37    88 1   
    87    39    40 1   
    88    39    89 1   
    89    39    90 1   
    90    40    91 1   
    91    40    92 1   
    92    44    45 1   
    93    44    48 ar  
    94    45    46 1   
    95    45    47 1   
    96    45    93 1   
    97    46    94 1   
    98    46    95 1   
    99    46    96 1   
   100    47    97 1   
   101    47    98 1   
   102    47    99 1   
   103    48   100 1   
   104    49   101 1   
   105    49   102 1   
   106    49   103 1   
@<TRIPOS>SUBSTRUCTURE
     1 672         1 TEMP              0 ****  ****    0 ROOT
