@<TRIPOS>MOLECULE
673
   50    51     1     0     0
SMALL
bcc


@<TRIPOS>ATOM
      1 CAA          1.0250     4.3700     1.1210 c2         1 673      -0.227000
      2 CAB         -8.2990    -0.0400     0.4330 c3         1 673      -0.091100
      3 CAC         -7.2600    -1.7150    -1.1070 c3         1 673      -0.091100
      4 CAD          0.3650     3.2970     0.6990 c2         1 673      -0.155200
      5 CAE          7.0750    -1.4370    -0.1540 ca         1 673      -0.128000
      6 CAF          6.2470    -2.0260     0.7930 ca         1 673      -0.128000
      7 CAG          6.5370    -0.5380    -1.0660 ca         1 673      -0.128000
      8 CAH          4.8950    -1.7190     0.8270 ca         1 673      -0.121000
      9 CAI          5.1840    -0.2340    -1.0330 ca         1 673      -0.121000
     10 CAJ          1.9450    -1.4630     0.2340 ca         1 673      -0.080000
     11 CAK          0.5920    -1.1560     0.2570 ca         1 673      -0.218000
     12 CAL          2.4500     0.8010    -0.3170 ca         1 673      -0.079000
     13 CAM          0.6740     2.5600    -0.5710 c3         1 673       0.012100
     14 CAN         -3.4780     0.2620     0.0470 c3         1 673      -0.086400
     15 CAO         -4.6320    -0.7280     0.1280 c3         1 673       0.162800
     16 CAP         -2.1420    -0.4410     0.1650 c3         1 673       0.142400
     17 NAQ         -5.9030    -0.0340     0.0630 n7         1 673      -0.808200
     18 OAR         -1.1220     0.5310     0.0020 os         1 673      -0.325900
     19 CAS          4.3400    -0.8190    -0.0860 cp         1 673      -0.024000
     20 CAT          2.9010    -0.4940    -0.0530 cp         1 673      -0.072000
     21 CAU          1.1080     1.1400    -0.3030 ca         1 673      -0.108300
     22 CAV          0.1670     0.1430    -0.0070 ca         1 673       0.153100
     23 CAW         -7.0720    -0.9000     0.1670 c3         1 673       0.176500
     24 HAA          1.8440     4.7930     0.5510 ha         1 673       0.109500
     25 HAAA         0.7680     4.8650     2.0480 ha         1 673       0.109500
     26 HAB         -9.1970    -0.6540     0.5040 hc         1 673       0.038033
     27 HABA        -8.2020     0.5130     1.3700 hc         1 673       0.038033
     28 HABB        -8.4450     0.6830    -0.3710 hc         1 673       0.038033
     29 HAC         -6.4250    -2.3910    -1.2960 hc         1 673       0.038033
     30 HACA        -8.1600    -2.3280    -1.0360 hc         1 673       0.038033
     31 HACB        -7.3640    -1.0570    -1.9720 hc         1 673       0.038033
     32 HAD         -0.4500     2.9020     1.2980 ha         1 673       0.125000
     33 HAE          8.1300    -1.6760    -0.1810 ha         1 673       0.130000
     34 HAF          6.6570    -2.7210     1.5140 ha         1 673       0.129500
     35 HAG          7.1710    -0.0770    -1.8120 ha         1 673       0.129500
     36 HAH          4.2680    -2.1700     1.5860 ha         1 673       0.130500
     37 HAI          4.7760     0.4520    -1.7650 ha         1 673       0.130500
     38 HAJ          2.2480    -2.4860     0.4260 ha         1 673       0.131000
     39 HAK         -0.1160    -1.9440     0.4730 ha         1 673       0.134000
     40 HAL          3.1720     1.5830    -0.5270 ha         1 673       0.134000
     41 HAM         -0.2070     2.5640    -1.2190 hc         1 673       0.053700
     42 HAMA         1.4660     3.0820    -1.1130 hc         1 673       0.053700
     43 HAN         -3.5300     0.8000    -0.9030 hc         1 673       0.061700
     44 HANA        -3.5700     1.0020     0.8470 hc         1 673       0.061700
     45 HAO         -4.5580    -1.4220    -0.7130 h1         1 673       0.028200
     46 HAOA        -4.5350    -1.3410     1.0400 h1         1 673       0.028200
     47 HAP         -2.0550    -0.9300     1.1410 h1         1 673       0.033200
     48 HAPA        -2.0470    -1.2180    -0.6020 h1         1 673       0.033200
     49 HNAQ        -5.9350     0.6300     0.8290 hn         1 673       0.352800
     50 HAW         -6.9640    -1.6080     1.0060 h1         1 673       0.015700
@<TRIPOS>BOND
     1     1     4 2   
     2     1    24 1   
     3     1    25 1   
     4     2    23 1   
     5     2    26 1   
     6     2    27 1   
     7     2    28 1   
     8     3    23 1   
     9     3    29 1   
    10     3    30 1   
    11     3    31 1   
    12     4    13 1   
    13     4    32 1   
    14     5     6 ar  
    15     5     7 ar  
    16     5    33 1   
    17     6     8 ar  
    18     6    34 1   
    19     7     9 ar  
    20     7    35 1   
    21     8    19 ar  
    22     8    36 1   
    23     9    19 ar  
    24     9    37 1   
    25    10    11 ar  
    26    10    20 ar  
    27    10    38 1   
    28    11    22 ar  
    29    11    39 1   
    30    12    20 ar  
    31    12    21 ar  
    32    12    40 1   
    33    13    21 1   
    34    13    41 1   
    35    13    42 1   
    36    14    15 1   
    37    14    16 1   
    38    14    43 1   
    39    14    44 1   
    40    15    17 1   
    41    15    45 1   
    42    15    46 1   
    43    16    18 1   
    44    16    47 1   
    45    16    48 1   
    46    17    23 1   
    47    17    49 1   
    48    18    22 1   
    49    19    20 1   
    50    21    22 ar  
    51    23    50 1   
@<TRIPOS>SUBSTRUCTURE
     1 673         1 TEMP              0 ****  ****    0 ROOT
