@<TRIPOS>MOLECULE
673
   50    51     1     0     0
SMALL
No Charge or Current Charge


@<TRIPOS>ATOM
      1 CAA          1.0250     4.4250     1.1480 c2         1 673      -0.327000
      2 CAB         -8.3980     0.1380     0.4460 c3         1 673      -0.091100
      3 CAC         -7.4860    -1.8120    -0.9270 c3         1 673      -0.091100
      4 CAD          0.4260     3.2950     0.7390 c2         1 673      -0.205200
      5 CAE          7.2340    -1.3800    -0.0250 ca         1 673      -0.110000
      6 CAF          6.3510    -2.0820     0.8110 ca         1 673      -0.110000
      7 CAG          6.7390    -0.3900    -0.8890 ca         1 673      -0.110000
      8 CAH          4.9750    -1.7940     0.7830 ca         1 673      -0.103000
      9 CAI          5.3640    -0.1010    -0.9150 ca         1 673      -0.103000
     10 CAJ          2.0210    -1.5100     0.0710 ca         1 673      -0.062000
     11 CAK          0.6460    -1.2230     0.0470 ca         1 673      -0.200000
     12 CAL          2.5190     0.8310    -0.3170 ca         1 673      -0.061000
     13 CAM          0.7010     2.5780    -0.5670 c3         1 673       0.012100
     14 CAN         -3.5330     0.1560    -0.0720 c3         1 673      -0.086400
     15 CAO         -4.7210    -0.8020     0.1240 c3         1 673       0.162800
     16 CAP         -2.1770    -0.5660     0.0110 c3         1 673       0.165600
     17 NAQ         -5.9930    -0.0600     0.0230 n7         1 673      -0.863400
     18 OAR         -1.1470     0.4180    -0.1820 os         1 673      -0.349100
     19 CAS          4.4520    -0.7970    -0.0800 cp         1 673      -0.024000
     20 CAT          2.9860    -0.4900    -0.1090 cp         1 673      -0.072000
     21 CAU          1.1430     1.1330    -0.3470 ca         1 673      -0.108300
     22 CAV          0.1980     0.1000    -0.1610 ca         1 673       0.153100
     23 CAW         -7.2250    -0.8410     0.2470 c3         1 673       0.176500
     24 HAA          1.7830     4.9260     0.5450 ha         1 673       0.159500
     25 HAAA         0.7750     4.8870     2.1050 ha         1 673       0.159500
     26 HAB         -9.3270    -0.4110     0.6440 hc         1 673       0.038033
     27 HABA        -8.2120     0.8010     1.3000 hc         1 673       0.038033
     28 HABB        -8.5500     0.7570    -0.4470 hc         1 673       0.038033
     29 HAC         -6.6980    -2.5700    -0.9980 hc         1 673       0.038033
     30 HACA        -8.4370    -2.3380    -0.7820 hc         1 673       0.038033
     31 HACB        -7.5360    -1.2720    -1.8790 hc         1 673       0.038033
     32 HAD         -0.3320     2.8120     1.3610 ha         1 673       0.175000
     33 HAE          8.2980    -1.6030    -0.0040 ha         1 673       0.112000
     34 HAF          6.7320    -2.8480     1.4830 ha         1 673       0.111500
     35 HAG          7.4210     0.1530    -1.5400 ha         1 673       0.111500
     36 HAH          4.3110    -2.3400     1.4480 ha         1 673       0.112500
     37 HAI          5.0010     0.6600    -1.6010 ha         1 673       0.112500
     38 HAJ          2.3400    -2.5390     0.2190 ha         1 673       0.113000
     39 HAK         -0.0530    -2.0410     0.1890 ha         1 673       0.116000
     40 HAL          3.2370     1.6380    -0.4390 ha         1 673       0.116000
     41 HAM         -0.1970     2.6060    -1.1970 hc         1 673       0.053700
     42 HAMA         1.4660     3.1190    -1.1390 hc         1 673       0.053700
     43 HAN         -3.6190     0.6440    -1.0510 hc         1 673       0.061700
     44 HANA        -3.5670     0.9430     0.6910 hc         1 673       0.061700
     45 HAO         -4.6670    -1.5900    -0.6390 h1         1 673       0.028200
     46 HAOA        -4.6350    -1.2810     1.1090 h1         1 673       0.028200
     47 HAP         -2.0760    -1.0450     0.9940 h1         1 673       0.033200
     48 HAPA        -2.1250    -1.3400    -0.7660 h1         1 673       0.033200
     49 HNAQ        -5.9700     0.6820     0.7320 hn         1 673       0.408000
     50 HAW         -7.1270    -1.4300     1.1690 h1         1 673       0.015700
@<TRIPOS>BOND
     1     1     4 2   
     2     1    24 1   
     3     1    25 1   
     4     2    23 1   
     5     2    26 1   
     6     2    27 1   
     7     2    28 1   
     8     3    23 1   
     9     3    29 1   
    10     3    30 1   
    11     3    31 1   
    12     4    13 1   
    13     4    32 1   
    14     5     6 ar  
    15     5     7 ar  
    16     5    33 1   
    17     6     8 ar  
    18     6    34 1   
    19     7     9 ar  
    20     7    35 1   
    21     8    19 ar  
    22     8    36 1   
    23     9    19 ar  
    24     9    37 1   
    25    10    11 ar  
    26    10    20 ar  
    27    10    38 1   
    28    11    22 ar  
    29    11    39 1   
    30    12    20 ar  
    31    12    21 ar  
    32    12    40 1   
    33    13    21 1   
    34    13    41 1   
    35    13    42 1   
    36    14    15 1   
    37    14    16 1   
    38    14    43 1   
    39    14    44 1   
    40    15    17 1   
    41    15    45 1   
    42    15    46 1   
    43    16    18 1   
    44    16    47 1   
    45    16    48 1   
    46    17    23 1   
    47    17    49 1   
    48    18    22 1   
    49    19    20 1   
    50    21    22 ar  
    51    23    50 1   
@<TRIPOS>SUBSTRUCTURE
     1 673         1 TEMP              0 ****  ****    0 ROOT
