@<TRIPOS>MOLECULE
674
   30    32     1     0     0
SMALL
No Charge or Current Charge


@<TRIPOS>ATOM
      1 C8A         15.9830    23.0900    45.1050 ca         1 674       0.146100
      2 C4A         14.9400    22.9650    44.1730 ca         1 674      -0.220600
      3 C4          15.2030    23.2930    42.7380 c          1 674       0.600900
      4 C3          16.5860    23.7240    42.4320 cc         1 674      -0.217400
      5 C2          17.5560    23.8160    43.4150 cd         1 674       0.036100
      6 O1          17.2320    23.5060    44.7110 os         1 674      -0.202200
      7 C8          15.7680    22.7910    46.4610 ca         1 674      -0.204000
      8 C7          14.5020    22.3640    46.8920 ca         1 674       0.107100
      9 C6          13.4490    22.2360    45.9630 ca         1 674       0.091100
     10 C5          13.6660    22.5350    44.6070 ca         1 674      -0.046000
     11 O4          14.2890    22.0710    48.2120 oh         1 674      -0.547100
     12 O3          12.2180    21.8190    46.3870 oh         1 674      -0.528100
     13 C1          17.0370    24.0720    41.0820 ca         1 674      -0.070800
     14 C11         17.6740    25.3050    40.8350 ca         1 674      -0.051500
     15 C10         18.1070    25.6320    39.5370 ca         1 674      -0.178000
     16 C9          17.9070    24.7330    38.4810 ca         1 674       0.145100
     17 C13         17.2730    23.5030    38.7170 ca         1 674      -0.178000
     18 C12         16.8390    23.1740    40.0140 ca         1 674      -0.051500
     19 O5          18.3300    25.0590    37.2280 oh         1 674      -0.533100
     20 O2          14.3230    23.2100    41.8890 o          1 674      -0.530100
     21 H2          18.5930    24.1100    43.2790 h4         1 674       0.232000
     22 H8          16.5890    22.8940    47.1650 ha         1 674       0.135000
     23 H5          12.8450    22.4320    43.9010 ha         1 674       0.157000
     24 HO4         15.1250    22.2160    48.7070 ho         1 674       0.484000
     25 HO3         12.2950    21.6690    47.3570 ho         1 674       0.483000
     26 H1          17.8280    26.0150    41.6450 ha         1 674       0.117500
     27 H3          18.5960    26.5850    39.3530 ha         1 674       0.121500
     28 H4          17.1130    22.7980    37.9050 ha         1 674       0.121500
     29 H6          16.3520    22.2170    40.1900 ha         1 674       0.117500
     30 HO5         18.1080    24.3190    36.6230 ho         1 674       0.466000
@<TRIPOS>BOND
     1     1     2 ar  
     2     1     6 1   
     3     1     7 ar  
     4     2     3 1   
     5     2    10 ar  
     6     3     4 1   
     7     3    20 2   
     8     4     5 2   
     9     4    13 1   
    10     5     6 1   
    11     5    21 1   
    12     7     8 ar  
    13     7    22 1   
    14     8     9 ar  
    15     8    11 1   
    16     9    10 ar  
    17     9    12 1   
    18    10    23 1   
    19    11    24 1   
    20    12    25 1   
    21    13    14 ar  
    22    13    18 ar  
    23    14    15 ar  
    24    14    26 1   
    25    15    16 ar  
    26    15    27 1   
    27    16    17 ar  
    28    16    19 1   
    29    17    18 ar  
    30    17    28 1   
    31    18    29 1   
    32    19    30 1   
@<TRIPOS>SUBSTRUCTURE
     1 674         1 TEMP              0 ****  ****    0 ROOT
