@<TRIPOS>MOLECULE
674
   30    32     1     0     0
SMALL
bcc


@<TRIPOS>ATOM
      1 C8A         16.0060    23.1160    45.1020 ca         1 674       0.146100
      2 C4A         14.9950    22.9630    44.1640 ca         1 674      -0.220600
      3 C4          15.2450    23.2590    42.7520 c          1 674       0.600900
      4 C3          16.6110    23.6880    42.4590 cc         1 674      -0.217400
      5 C2          17.5020    23.7870    43.4660 cd         1 674       0.086100
      6 O1          17.2420    23.5310    44.7470 os         1 674      -0.202200
      7 C8          15.7980    22.8480    46.4520 ca         1 674      -0.222000
      8 C7          14.5560    22.4200    46.8660 ca         1 674       0.107100
      9 C6          13.5060    22.2510    45.9300 ca         1 674       0.091100
     10 C5          13.7380    22.5230    44.6050 ca         1 674      -0.064000
     11 O4          14.2450    22.1360    48.1380 oh         1 674      -0.508100
     12 O3          12.2880    21.8330    46.3220 oh         1 674      -0.489100
     13 C1          17.0190    24.0460    41.0890 ca         1 674      -0.070800
     14 C11         17.6800    25.2470    40.8350 ca         1 674      -0.069500
     15 C10         18.1080    25.5840    39.5620 ca         1 674      -0.196000
     16 C9          17.8740    24.7170    38.4980 ca         1 674       0.145100
     17 C13         17.2060    23.5170    38.7330 ca         1 674      -0.196000
     18 C12         16.7860    23.1910    40.0120 ca         1 674      -0.069500
     19 O5          18.3070    25.0850    37.2770 oh         1 674      -0.494100
     20 O2          14.3740    23.1650    41.8990 o          1 674      -0.530100
     21 H2          18.5320    24.0880    43.3210 h4         1 674       0.182000
     22 H8          16.6050    22.9780    47.1640 ha         1 674       0.153000
     23 H5          12.9380    22.3950    43.8870 ha         1 674       0.175000
     24 HO4         15.0050    22.2330    48.7240 ho         1 674       0.445000
     25 HO3         12.2860    21.6070    47.2600 ho         1 674       0.444000
     26 H1          17.8570    25.9440    41.6450 ha         1 674       0.135500
     27 H3          18.6190    26.5230    39.3890 ha         1 674       0.139500
     28 H4          17.0160    22.8280    37.9160 ha         1 674       0.139500
     29 H6          16.2870    22.2440    40.1680 ha         1 674       0.135500
     30 HO5         18.0960    24.4080    36.6240 ho         1 674       0.427000
@<TRIPOS>BOND
     1     1     2 ar  
     2     1     6 1   
     3     1     7 ar  
     4     2     3 1   
     5     2    10 ar  
     6     3     4 1   
     7     3    20 2   
     8     4     5 2   
     9     4    13 1   
    10     5     6 1   
    11     5    21 1   
    12     7     8 ar  
    13     7    22 1   
    14     8     9 ar  
    15     8    11 1   
    16     9    10 ar  
    17     9    12 1   
    18    10    23 1   
    19    11    24 1   
    20    12    25 1   
    21    13    14 ar  
    22    13    18 ar  
    23    14    15 ar  
    24    14    26 1   
    25    15    16 ar  
    26    15    27 1   
    27    16    17 ar  
    28    16    19 1   
    29    17    18 ar  
    30    17    28 1   
    31    18    29 1   
    32    19    30 1   
@<TRIPOS>SUBSTRUCTURE
     1 674         1 TEMP              0 ****  ****    0 ROOT
