@<TRIPOS>MOLECULE
675
   37    39     1     0     0
SMALL
bcc


@<TRIPOS>ATOM
      1 N18         -1.2970     0.8410     6.4960 n2         1 675      -0.841100
      2 C17         -0.4260     0.0460     6.0040 ce         1 675       0.660800
      3 N19          0.2330    -0.8420     6.7990 nv         1 675      -0.922800
      4 C12         -0.0080     0.0310     4.5730 ca         1 675      -0.181900
      5 C11          1.3430    -0.2010     4.2160 ca         1 675      -0.108000
      6 C10          1.7300    -0.1890     2.9070 ca         1 675      -0.108000
      7 C2           0.7880     0.0390     1.8770 ca         1 675      -0.042000
      8 C1           1.1600     0.0560     0.5170 ca         1 675      -0.052000
      9 C6           0.2260     0.2570    -0.4690 ca         1 675      -0.153600
     10 C5          -1.1270     0.4810    -0.1140 ca         1 675      -0.111000
     11 C4          -1.5100     0.4850     1.1970 ca         1 675      -0.116000
     12 C3          -0.5680     0.2600     2.2270 ca         1 675      -0.026000
     13 C13         -0.9370     0.2570     3.5890 ca         1 675      -0.101000
     14 C23          0.6990     0.2680    -1.8870 c          1 675       0.688700
     15 O36          1.8440     0.5780    -2.1670 o          1 675      -0.579100
     16 N24         -0.2320    -0.1030    -2.8010 ns         1 675      -0.468100
     17 C25         -0.1340    -0.1490    -4.1970 ca         1 675       0.072600
     18 C30          0.9830     0.2610    -4.9270 ca         1 675      -0.167500
     19 C29          0.9600     0.1820    -6.3140 ca         1 675      -0.101500
     20 C28         -0.1500    -0.2980    -6.9930 ca         1 675      -0.154000
     21 C27         -1.2590    -0.7050    -6.2630 ca         1 675      -0.101500
     22 C26         -1.2520    -0.6320    -4.8810 ca         1 675      -0.167500
     23 H18         -1.6130     1.5040     5.7980 hn         1 675       0.389400
     24 H191        -0.1170    -0.9470     7.7380 hn         1 675       0.415800
     25 H192         0.5750    -1.6940     6.3870 hn         1 675       0.415800
     26 H11          2.0810    -0.3670     4.9900 ha         1 675       0.146000
     27 H10          2.7680    -0.3530     2.6460 ha         1 675       0.141000
     28 H1           2.1990    -0.1060     0.2580 ha         1 675       0.157000
     29 H5          -1.8730     0.6850    -0.8710 ha         1 675       0.133000
     30 H4          -2.5440     0.6720     1.4580 ha         1 675       0.138000
     31 H13         -1.9790     0.4170     3.8440 ha         1 675       0.140000
     32 H24         -1.1070    -0.4490    -2.4400 hn         1 675       0.319500
     33 H30          1.8630     0.6380    -4.4350 ha         1 675       0.145000
     34 H29          1.8330     0.5050    -6.8660 ha         1 675       0.131000
     35 H28         -0.1520    -0.3540    -8.0730 ha         1 675       0.133000
     36 H27         -2.1390    -1.0830    -6.7680 ha         1 675       0.131000
     37 H26         -2.1250    -0.9520    -4.3240 ha         1 675       0.145000
@<TRIPOS>BOND
     1     1     2 2   
     2     1    23 1   
     3     2     3 1   
     4     2     4 1   
     5     3    24 1   
     6     3    25 1   
     7     4     5 ar  
     8     4    13 ar  
     9     5     6 ar  
    10     5    26 1   
    11     6     7 ar  
    12     6    27 1   
    13     7     8 ar  
    14     7    12 ar  
    15     8     9 ar  
    16     8    28 1   
    17     9    10 ar  
    18     9    14 1   
    19    10    11 ar  
    20    10    29 1   
    21    11    12 ar  
    22    11    30 1   
    23    12    13 ar  
    24    13    31 1   
    25    14    15 2   
    26    14    16 1   
    27    16    17 1   
    28    16    32 1   
    29    17    18 ar  
    30    17    22 ar  
    31    18    19 ar  
    32    18    33 1   
    33    19    20 ar  
    34    19    34 1   
    35    20    21 ar  
    36    20    35 1   
    37    21    22 ar  
    38    21    36 1   
    39    22    37 1   
@<TRIPOS>SUBSTRUCTURE
     1 675         1 TEMP              0 ****  ****    0 ROOT
