@<TRIPOS>MOLECULE
675
   37    39     1     0     0
SMALL
No Charge or Current Charge


@<TRIPOS>ATOM
      1 N18         -1.5850     0.5920     6.4480 n2         1 675      -0.841100
      2 C17         -0.4550     0.1450     6.0860 ce         1 675       0.660800
      3 N19          0.3220    -0.4360     7.0170 nv         1 675      -1.033200
      4 C12         -0.0110     0.0760     4.6580 ca         1 675      -0.181900
      5 C11          1.3650     0.0840     4.3270 ca         1 675      -0.090000
      6 C10          1.7820     0.0580     2.9850 ca         1 675      -0.090000
      7 C2           0.8330     0.0370     1.9480 ca         1 675      -0.042000
      8 C1           1.2500     0.0110     0.6030 ca         1 675      -0.034000
      9 C6           0.3060    -0.0060    -0.4500 ca         1 675      -0.153600
     10 C5          -1.0730     0.0050    -0.1200 ca         1 675      -0.093000
     11 C4          -1.4870     0.0320     1.2230 ca         1 675      -0.098000
     12 C3          -0.5390     0.0480     2.2610 ca         1 675      -0.026000
     13 C13         -0.9570     0.0750     3.6050 ca         1 675      -0.083000
     14 C23          0.7960    -0.0340    -1.8880 c          1 675       0.621700
     15 O36          1.9960    -0.0440    -2.1450 o          1 675      -0.579100
     16 N24         -0.1950    -0.0520    -2.8630 ns         1 675      -0.142000
     17 C25         -0.1500    -0.0720    -4.2860 ca         1 675      -0.020000
     18 C30          1.0470    -0.0210    -5.0360 ca         1 675      -0.149500
     19 C29          1.0070    -0.0430    -6.4410 ca         1 675      -0.083500
     20 C28         -0.2240    -0.1140    -7.1120 ca         1 675      -0.136000
     21 C27         -1.4180    -0.1620    -6.3760 ca         1 675      -0.083500
     22 C26         -1.3790    -0.1400    -4.9720 ca         1 675      -0.149500
     23 H18         -2.0170     1.0460     5.6330 hn         1 675       0.389400
     24 H191        -0.1680    -0.6450     7.8770 hn         1 675       0.471000
     25 H192         0.9460    -1.1570     6.6760 hn         1 675       0.471000
     26 H11          2.1210     0.1210     5.1090 ha         1 675       0.128000
     27 H10          2.8450     0.0610     2.7560 ha         1 675       0.123000
     28 H1           2.3150     0.0040     0.3800 ha         1 675       0.139000
     29 H5          -1.8410    -0.0060    -0.8890 ha         1 675       0.115000
     30 H4          -2.5500     0.0410     1.4550 ha         1 675       0.120000
     31 H13         -2.0220     0.0770     3.8250 ha         1 675       0.122000
     32 H24         -1.1350    -0.0500    -2.4910 hn         1 675       0.153000
     33 H30          2.0170     0.0380    -4.5540 ha         1 675       0.127000
     34 H29          1.9330    -0.0040    -7.0110 ha         1 675       0.113000
     35 H28         -0.2520    -0.1310    -8.1990 ha         1 675       0.115000
     36 H27         -2.3740    -0.2160    -6.8940 ha         1 675       0.113000
     37 H26         -2.3120    -0.1780    -4.4140 ha         1 675       0.127000
@<TRIPOS>BOND
     1     1     2 2   
     2     1    23 1   
     3     2     3 1   
     4     2     4 1   
     5     3    24 1   
     6     3    25 1   
     7     4     5 ar  
     8     4    13 ar  
     9     5     6 ar  
    10     5    26 1   
    11     6     7 ar  
    12     6    27 1   
    13     7     8 ar  
    14     7    12 ar  
    15     8     9 ar  
    16     8    28 1   
    17     9    10 ar  
    18     9    14 1   
    19    10    11 ar  
    20    10    29 1   
    21    11    12 ar  
    22    11    30 1   
    23    12    13 ar  
    24    13    31 1   
    25    14    15 2   
    26    14    16 1   
    27    16    17 1   
    28    16    32 1   
    29    17    18 ar  
    30    17    22 ar  
    31    18    19 ar  
    32    18    33 1   
    33    19    20 ar  
    34    19    34 1   
    35    20    21 ar  
    36    20    35 1   
    37    21    22 ar  
    38    21    36 1   
    39    22    37 1   
@<TRIPOS>SUBSTRUCTURE
     1 675         1 TEMP              0 ****  ****    0 ROOT
