@<TRIPOS>MOLECULE
676
   52    55     1     0     0
SMALL
abcg2


@<TRIPOS>ATOM
      1 O21          2.3460    -0.4500     2.2860 o          1 676      -0.612100
      2 C19          2.1750    -0.3570     1.0780 c          1 676       0.611100
      3 N20          3.1640    -0.1830     0.1900 ns         1 676      -0.478900
      4 C22          4.5370     0.1010     0.5570 c3         1 676       0.154000
      5 C24          5.5010    -0.8010    -0.1780 ca         1 676      -0.102300
      6 C29          6.3630    -1.6310     0.5300 ca         1 676      -0.097500
      7 C28          7.2640    -2.4550    -0.1330 ca         1 676      -0.108500
      8 C27          7.3100    -2.4590    -1.5200 ca         1 676      -0.101000
      9 C26          6.4530    -1.6340    -2.2370 ca         1 676      -0.108500
     10 C25          5.5580    -0.8090    -1.5710 ca         1 676      -0.097500
     11 C23          4.8660     1.5790     0.3240 c3         1 676       0.132800
     12 N30          3.9740     2.4350     1.0800 n8         1 676      -1.014200
     13 C11          0.7820    -0.4210     0.4870 c3         1 676      -0.178400
     14 C6          -0.0660     0.7320     1.0330 c6         1 676       0.078300
     15 N5          -1.4240     0.6360     0.5260 na         1 676       0.044000
     16 C1          -2.4380    -0.0990     1.0090 cc         1 676      -0.131000
     17 C7           0.4520     2.1080     0.6400 c6         1 676       0.083000
     18 N8           0.2840     2.3210    -0.7850 ns         1 676      -0.514900
     19 C9          -0.8700     2.0470    -1.4290 c          1 676       0.601600
     20 O10         -1.1260     2.4230    -2.5650 o          1 676      -0.546000
     21 C4          -1.7990     1.2150    -0.6590 cc         1 676      -0.263600
     22 C2          -3.0940     0.8450    -0.9230 cd         1 676      -0.067000
     23 C3          -3.5140     0.0080     0.1390 cd         1 676      -0.150000
     24 C12         -4.8140    -0.6250     0.3070 ca         1 676       0.083000
     25 C14         -5.8140    -0.4850    -0.6530 ca         1 676      -0.202000
     26 C16         -7.0170    -1.1230    -0.4190 ca         1 676       0.572200
     27 F18         -7.9840    -0.9990    -1.3350 f          1 676      -0.231200
     28 N17         -7.3190    -1.8480     0.6200 nb         1 676      -0.707000
     29 C15         -6.3620    -1.9810     1.5410 ca         1 676       0.367900
     30 C13         -5.1160    -1.4020     1.4340 ca         1 676      -0.192000
     31 H20          2.9080    -0.0490    -0.7760 hn         1 676       0.314500
     32 H111         0.7910    -0.3940    -0.6040 hc         1 676       0.078200
     33 H112         0.3280    -1.3690     0.7850 hc         1 676       0.078200
     34 H22          4.6220    -0.1050     1.6250 h1         1 676       0.087700
     35 H231         5.9300     1.7200     0.5550 h1         1 676       0.039200
     36 H232         4.7470     1.8090    -0.7390 h1         1 676       0.039200
     37 H29          6.3300    -1.6340     1.6140 ha         1 676       0.112000
     38 H25          4.9040    -0.1690    -2.1520 ha         1 676       0.112000
     39 H28          7.9270    -3.0930     0.4370 ha         1 676       0.116500
     40 H27          8.0100    -3.1000    -2.0410 ha         1 676       0.116000
     41 H26          6.4840    -1.6300    -3.3200 ha         1 676       0.116500
     42 H301         4.1910     2.3720     2.0670 hn         1 676       0.403000
     43 H302         4.1300     3.4000     0.8200 hn         1 676       0.403000
     44 H6          -0.1050     0.6720     2.1210 h1         1 676       0.094700
     45 H71C        -0.0860     2.8680     1.2160 h1         1 676       0.075200
     46 H72C         1.5140     2.2020     0.8770 h1         1 676       0.075200
     47 H1          -2.3330    -0.6500     1.9310 h4         1 676       0.154000
     48 H8           0.9390     2.9290    -1.2540 hn         1 676       0.322500
     49 H2          -3.6700     1.1630    -1.7780 ha         1 676       0.152000
     50 H14         -5.6710     0.0950    -1.5540 ha         1 676       0.143000
     51 H13         -4.3930    -1.5580     2.2220 ha         1 676       0.122000
     52 H15         -6.6100    -2.5830     2.4060 h4         1 676       0.023100
@<TRIPOS>BOND
     1     1     2 2   
     2     2     3 1   
     3     2    13 1   
     4     3     4 1   
     5     3    31 1   
     6     4     5 1   
     7     4    11 1   
     8     4    34 1   
     9     5     6 ar  
    10     5    10 ar  
    11     6     7 ar  
    12     6    37 1   
    13     7     8 ar  
    14     7    39 1   
    15     8     9 ar  
    16     8    40 1   
    17     9    10 ar  
    18     9    41 1   
    19    10    38 1   
    20    11    12 1   
    21    11    35 1   
    22    11    36 1   
    23    12    42 1   
    24    12    43 1   
    25    13    14 1   
    26    13    32 1   
    27    13    33 1   
    28    14    15 1   
    29    14    17 1   
    30    14    44 1   
    31    15    16 1   
    32    15    21 1   
    33    16    23 2   
    34    16    47 1   
    35    17    18 1   
    36    17    45 1   
    37    17    46 1   
    38    18    19 1   
    39    18    48 1   
    40    19    20 2   
    41    19    21 1   
    42    21    22 2   
    43    22    23 1   
    44    22    49 1   
    45    23    24 1   
    46    24    25 ar  
    47    24    30 ar  
    48    25    26 ar  
    49    25    50 1   
    50    26    27 1   
    51    26    28 ar  
    52    28    29 ar  
    53    29    30 ar  
    54    29    52 1   
    55    30    51 1   
@<TRIPOS>SUBSTRUCTURE
     1 676         1 TEMP              0 ****  ****    0 ROOT
