@<TRIPOS>MOLECULE
676
   52    55     1     0     0
SMALL
No Charge or Current Charge


@<TRIPOS>ATOM
      1 O21          2.3520    -0.2690     2.4790 o          1 676      -0.612100
      2 C19          2.1770    -0.2220     1.2700 c          1 676       0.611100
      3 N20          3.2100    -0.1040     0.3690 ns         1 676      -0.478900
      4 C22          4.6190     0.0910     0.7270 c3         1 676       0.154000
      5 C24          5.5030    -0.7970    -0.1480 ca         1 676      -0.102300
      6 C29          6.1890    -1.8890     0.4220 ca         1 676      -0.097500
      7 C28          7.0000    -2.7150    -0.3750 ca         1 676      -0.108500
      8 C27          7.1300    -2.4590    -1.7500 ca         1 676      -0.101000
      9 C26          6.4460    -1.3770    -2.3280 ca         1 676      -0.108500
     10 C25          5.6350    -0.5500    -1.5320 ca         1 676      -0.097500
     11 C23          5.0410     1.5920     0.6570 c3         1 676       0.132800
     12 N30          4.2510     2.4920     1.5400 n8         1 676      -1.014200
     13 C11          0.7870    -0.3340     0.6480 c3         1 676      -0.178400
     14 C6          -0.0860     0.9300     0.9040 c6         1 676       0.078300
     15 N5          -1.4610     0.7310     0.4090 na         1 676       0.044000
     16 C1          -2.4790     0.0030     1.0200 cc         1 676      -0.131000
     17 C7           0.5130     2.2120     0.2300 c6         1 676       0.083000
     18 N8           0.1440     2.3810    -1.2020 ns         1 676      -0.514900
     19 C9          -1.0440     1.9700    -1.7670 c          1 676       0.601600
     20 O10         -1.3620     2.2680    -2.9060 o          1 676      -0.546000
     21 C4          -1.8540     1.1720    -0.8380 cc         1 676      -0.263600
     22 C2          -3.1230     0.6990    -1.0330 cd         1 676      -0.067000
     23 C3          -3.5250    -0.0230     0.1220 cd         1 676      -0.150000
     24 C12         -4.8230    -0.6940     0.3330 ca         1 676       0.083000
     25 C14         -5.8330    -0.6670    -0.6430 ca         1 676      -0.202000
     26 C16         -7.0440    -1.3210    -0.3880 ca         1 676       0.572200
     27 F18         -8.0340    -1.3140    -1.3060 f          1 676      -0.231200
     28 N17         -7.3190    -1.9890     0.7490 nb         1 676      -0.707000
     29 C15         -6.3500    -2.0170     1.6880 ca         1 676       0.367900
     30 C13         -5.1040    -1.3910     1.5240 ca         1 676      -0.192000
     31 H20          2.9630    -0.0960    -0.6120 hn         1 676       0.314500
     32 H111         0.8730    -0.5010    -0.4320 hc         1 676       0.078200
     33 H112         0.2930    -1.2010     1.1010 hc         1 676       0.078200
     34 H22          4.7550    -0.2310     1.7690 h1         1 676       0.087700
     35 H231         6.0990     1.6710     0.9430 h1         1 676       0.039200
     36 H232         4.9450     1.9550    -0.3750 h1         1 676       0.039200
     37 H29          6.0950    -2.1000     1.4850 ha         1 676       0.112000
     38 H25          5.1070     0.2800    -1.9960 ha         1 676       0.112000
     39 H28          7.5270    -3.5540     0.0740 ha         1 676       0.116500
     40 H27          7.7580    -3.1000    -2.3660 ha         1 676       0.116000
     41 H26          6.5440    -1.1800    -3.3930 ha         1 676       0.116500
     42 H301         4.3520     2.1840     2.5150 hn         1 676       0.403000
     43 H302         4.6770     3.4270     1.5370 hn         1 676       0.403000
     44 H6          -0.1320     1.0960     1.9900 h1         1 676       0.094700
     45 H71C         0.1280     3.0910     0.7670 h1         1 676       0.075200
     46 H72C         1.6070     2.2360     0.3310 h1         1 676       0.075200
     47 H1          -2.3670    -0.4330     2.0050 h4         1 676       0.154000
     48 H8           0.7490     2.9330    -1.7990 hn         1 676       0.322500
     49 H2          -3.7150     0.8650    -1.9280 ha         1 676       0.152000
     50 H14         -5.7020    -0.1540    -1.5880 ha         1 676       0.143000
     51 H13         -4.3750    -1.4560     2.3240 ha         1 676       0.122000
     52 H15         -6.5800    -2.5590     2.6050 h4         1 676       0.023100
@<TRIPOS>BOND
     1     1     2 2   
     2     2     3 1   
     3     2    13 1   
     4     3     4 1   
     5     3    31 1   
     6     4     5 1   
     7     4    11 1   
     8     4    34 1   
     9     5     6 ar  
    10     5    10 ar  
    11     6     7 ar  
    12     6    37 1   
    13     7     8 ar  
    14     7    39 1   
    15     8     9 ar  
    16     8    40 1   
    17     9    10 ar  
    18     9    41 1   
    19    10    38 1   
    20    11    12 1   
    21    11    35 1   
    22    11    36 1   
    23    12    42 1   
    24    12    43 1   
    25    13    14 1   
    26    13    32 1   
    27    13    33 1   
    28    14    15 1   
    29    14    17 1   
    30    14    44 1   
    31    15    16 1   
    32    15    21 1   
    33    16    23 2   
    34    16    47 1   
    35    17    18 1   
    36    17    45 1   
    37    17    46 1   
    38    18    19 1   
    39    18    48 1   
    40    19    20 2   
    41    19    21 1   
    42    21    22 2   
    43    22    23 1   
    44    22    49 1   
    45    23    24 1   
    46    24    25 ar  
    47    24    30 ar  
    48    25    26 ar  
    49    25    50 1   
    50    26    27 1   
    51    26    28 ar  
    52    28    29 ar  
    53    29    30 ar  
    54    29    52 1   
    55    30    51 1   
@<TRIPOS>SUBSTRUCTURE
     1 676         1 TEMP              0 ****  ****    0 ROOT
