@<TRIPOS>MOLECULE
677
   43    46     1     0     0
SMALL
abcg2


@<TRIPOS>ATOM
      1 F27         -7.5510     0.8840    -0.2650 f          1 677      -0.149000
      2 C6          -6.2600     0.5540    -0.2800 ca         1 677       0.168000
      3 C1          -5.7760    -0.3120    -1.2350 ca         1 677      -0.174000
      4 C2          -4.4280    -0.6240    -1.2150 ca         1 677       0.201000
      5 F22         -3.9780    -1.4710    -2.1500 f          1 677      -0.161000
      6 C5          -5.4090     1.0900     0.6720 ca         1 677       0.118000
      7 F21         -5.9020     1.9270     1.5900 f          1 677      -0.154000
      8 C4          -4.0720     0.7660     0.6700 ca         1 677      -0.114000
      9 C3          -3.5440    -0.1050    -0.2830 ca         1 677      -0.113300
     10 C9          -2.0800    -0.4610    -0.2760 c6         1 677      -0.014400
     11 C10         -1.2190     0.7820    -0.5280 c6         1 677      -0.092700
     12 C14         -1.6570    -1.1250     1.0430 c6         1 677       0.156500
     13 N23         -2.5000    -2.2680     1.3300 n8         1 677      -0.994200
     14 C13         -0.2260    -1.6300     0.9020 c6         1 677       0.074600
     15 N12          0.6340    -0.5950     0.3690 na         1 677      -0.175600
     16 C11          0.2280     0.4980    -0.3370 cc         1 677       0.420800
     17 N18          1.2190     1.2320    -0.7630 nd         1 677      -0.558100
     18 C29          1.9980    -0.5710     0.3880 ca         1 677      -0.035200
     19 C23          2.9390    -1.4280     0.9440 ca         1 677      -0.128000
     20 C22          4.2680    -1.0870     0.7810 ca         1 677      -0.016000
     21 C19          2.3490     0.5920    -0.3230 ca         1 677       0.049400
     22 C20          3.6870     0.9310    -0.4790 ca         1 677       0.059000
     23 C21          4.6210     0.0740     0.0810 ca         1 677      -0.295500
     24 S24          6.3400     0.4570    -0.0990 sy         1 677       1.060500
     25 O26          6.4780     1.8970    -0.3130 o          1 677      -0.525000
     26 O25          7.0670    -0.1550     1.0130 o          1 677      -0.525000
     27 C27          6.8210    -0.3730    -1.5970 c3         1 677      -0.336100
     28 H1          -6.4350    -0.7370    -1.9810 ha         1 677       0.158000
     29 H4          -3.4340     1.2010     1.4300 ha         1 677       0.138000
     30 H9          -1.8880    -1.1840    -1.0730 hc         1 677       0.090700
     31 H10         -1.3790     1.1640    -1.5360 hc         1 677       0.079700
     32 H10A        -1.5020     1.5870     0.1560 hc         1 677       0.079700
     33 H14         -1.6740    -0.3620     1.8380 h1         1 677       0.033700
     34 HN23        -2.2080    -2.6950     2.2010 hn         1 677       0.406000
     35 HN2A        -3.4500    -1.9590     1.4930 hn         1 677       0.406000
     36 H13          0.1620    -1.9430     1.8720 h1         1 677       0.069200
     37 H13A        -0.2150    -2.4960     0.2350 h1         1 677       0.069200
     38 H23          2.6600    -2.3230     1.4850 ha         1 677       0.124000
     39 H22          5.0330    -1.7230     1.2040 ha         1 677       0.137000
     40 H20          3.9760     1.8270    -1.0130 ha         1 677       0.154000
     41 H27          6.2560     0.0330    -2.4330 h1         1 677       0.101700
     42 H27A         7.8850    -0.1920    -1.7400 h1         1 677       0.101700
     43 H27B         6.6340    -1.4400    -1.4970 h1         1 677       0.101700
@<TRIPOS>BOND
     1     1     2 1   
     2     2     3 ar  
     3     2     6 ar  
     4     3     4 ar  
     5     3    28 1   
     6     4     5 1   
     7     4     9 ar  
     8     6     7 1   
     9     6     8 ar  
    10     8     9 ar  
    11     8    29 1   
    12     9    10 1   
    13    10    11 1   
    14    10    12 1   
    15    10    30 1   
    16    11    16 1   
    17    11    31 1   
    18    11    32 1   
    19    12    13 1   
    20    12    14 1   
    21    12    33 1   
    22    13    34 1   
    23    13    35 1   
    24    14    15 1   
    25    14    36 1   
    26    14    37 1   
    27    15    16 1   
    28    15    18 1   
    29    16    17 2   
    30    17    21 1   
    31    18    19 ar  
    32    18    21 ar  
    33    19    20 ar  
    34    19    38 1   
    35    20    23 ar  
    36    20    39 1   
    37    21    22 ar  
    38    22    23 ar  
    39    22    40 1   
    40    23    24 1   
    41    24    25 2   
    42    24    26 2   
    43    24    27 1   
    44    27    41 1   
    45    27    42 1   
    46    27    43 1   
@<TRIPOS>SUBSTRUCTURE
     1 677         1 TEMP              0 ****  ****    0 ROOT
