@<TRIPOS>MOLECULE
677
   43    46     1     0     0
SMALL
No Charge or Current Charge


@<TRIPOS>ATOM
      1 F27         -7.6750     0.8340    -0.3660 f          1 677      -0.149000
      2 C6          -6.3580     0.5290    -0.3350 ca         1 677       0.168000
      3 C1          -5.7940    -0.2090    -1.3850 ca         1 677      -0.174000
      4 C2          -4.4270    -0.5290    -1.3610 ca         1 677       0.201000
      5 F22         -3.9100    -1.2320    -2.3940 f          1 677      -0.161000
      6 C5          -5.5550     0.9510     0.7400 ca         1 677       0.118000
      7 F21         -6.0920     1.6680     1.7530 f          1 677      -0.154000
      8 C4          -4.1870     0.6320     0.7670 ca         1 677      -0.114000
      9 C3          -3.6060    -0.1180    -0.2820 ca         1 677      -0.113300
     10 C9          -2.0980    -0.4540    -0.2470 c6         1 677      -0.014400
     11 C10         -1.2470     0.8290    -0.5080 c6         1 677      -0.092700
     12 C14         -1.6480    -1.1600     1.0790 c6         1 677       0.156500
     13 N23         -2.5220    -2.3160     1.3890 n8         1 677      -0.994200
     14 C13         -0.1530    -1.5990     1.0160 c6         1 677       0.074600
     15 N12          0.6750    -0.5240     0.4410 na         1 677      -0.175600
     16 C11          0.2200     0.5600    -0.3050 cc         1 677       0.420800
     17 N18          1.2590     1.2840    -0.7700 nd         1 677      -0.558100
     18 C29          2.0340    -0.5000     0.4340 ca         1 677      -0.035200
     19 C23          2.9720    -1.3620     1.0150 ca         1 677      -0.128000
     20 C22          4.3380    -1.0640     0.8270 ca         1 677      -0.016000
     21 C19          2.3840     0.6000    -0.2980 ca         1 677       0.049400
     22 C20          3.7360     0.9210    -0.4990 ca         1 677       0.059000
     23 C21          4.7220     0.0780     0.0730 ca         1 677      -0.295500
     24 S24          6.4640     0.4550    -0.1770 sy         1 677       1.060500
     25 O26          6.5970     1.8790    -0.5070 o          1 677      -0.525000
     26 O25          7.2410    -0.1530     0.9110 o          1 677      -0.525000
     27 C27          6.8660    -0.4580    -1.6650 c3         1 677      -0.336100
     28 H1          -6.4120    -0.5310    -2.2180 ha         1 677       0.158000
     29 H4          -3.5840     0.9750     1.6040 ha         1 677       0.138000
     30 H9          -1.8710    -1.1590    -1.0590 hc         1 677       0.090700
     31 H10         -1.4310     1.1950    -1.5260 hc         1 677       0.079700
     32 H10A        -1.5610     1.6330     0.1690 hc         1 677       0.079700
     33 H14         -1.7630    -0.4420     1.9050 h1         1 677       0.033700
     34 HN23        -2.3880    -2.5850     2.3720 hn         1 677       0.406000
     35 HN2A        -3.4990    -2.0020     1.3590 hn         1 677       0.406000
     36 H13          0.2090    -1.8510     2.0230 h1         1 677       0.069200
     37 H13A        -0.0520    -2.4910     0.3820 h1         1 677       0.069200
     38 H23          2.6660    -2.2320     1.5910 ha         1 677       0.124000
     39 H22          5.0910    -1.7180     1.2650 ha         1 677       0.137000
     40 H20          4.0030     1.7980    -1.0860 ha         1 677       0.154000
     41 H27          6.2270    -0.0900    -2.4750 h1         1 677       0.101700
     42 H27A         7.9220    -0.2860    -1.8960 h1         1 677       0.101700
     43 H27B         6.6780    -1.5200    -1.4760 h1         1 677       0.101700
@<TRIPOS>BOND
     1     1     2 1   
     2     2     3 ar  
     3     2     6 ar  
     4     3     4 ar  
     5     3    28 1   
     6     4     5 1   
     7     4     9 ar  
     8     6     7 1   
     9     6     8 ar  
    10     8     9 ar  
    11     8    29 1   
    12     9    10 1   
    13    10    11 1   
    14    10    12 1   
    15    10    30 1   
    16    11    16 1   
    17    11    31 1   
    18    11    32 1   
    19    12    13 1   
    20    12    14 1   
    21    12    33 1   
    22    13    34 1   
    23    13    35 1   
    24    14    15 1   
    25    14    36 1   
    26    14    37 1   
    27    15    16 1   
    28    15    18 1   
    29    16    17 2   
    30    17    21 1   
    31    18    19 ar  
    32    18    21 ar  
    33    19    20 ar  
    34    19    38 1   
    35    20    23 ar  
    36    20    39 1   
    37    21    22 ar  
    38    22    23 ar  
    39    22    40 1   
    40    23    24 1   
    41    24    25 2   
    42    24    26 2   
    43    24    27 1   
    44    27    41 1   
    45    27    42 1   
    46    27    43 1   
@<TRIPOS>SUBSTRUCTURE
     1 677         1 TEMP              0 ****  ****    0 ROOT
