@<TRIPOS>MOLECULE
678
   37    39     1     0     0
SMALL
abcg2


@<TRIPOS>ATOM
      1 C1           5.3850     0.0960    -0.0250 ca         1 678      -0.301900
      2 C2           5.1590     1.4580    -0.3080 ca         1 678      -0.122000
      3 C3           3.8780     1.9690    -0.3500 ca         1 678      -0.126000
      4 C4           2.8250     1.0990    -0.0910 ca         1 678       0.033000
      5 C5           3.0250    -0.2750     0.1930 ca         1 678      -0.045000
      6 C6           4.3240    -0.7730     0.2200 ca         1 678      -0.080000
      7 C7           6.7570    -0.4110     0.0090 ce         1 678       0.523400
      8 N1           7.0090    -1.6360    -0.3940 nv         1 678      -0.601200
      9 N2           7.7260     0.3630     0.4430 nv         1 678      -0.585300
     10 N3           1.4910     1.3240    -0.0480 na         1 678      -0.262900
     11 CN4          1.7380    -0.8480     0.3990 cc         1 678      -0.333000
     12 C8           0.8050     0.1580     0.2500 cc         1 678       0.153900
     13 C9          -0.6420     0.1600     0.3740 cd         1 678      -0.315200
     14 C10         -1.3390     1.3750     0.4440 cd         1 678      -0.121000
     15 C11         -2.7140     1.4670     0.5510 cc         1 678      -0.107200
     16 CV          -3.4170     2.7870     0.6320 c3         1 678      -0.166200
     17 CW          -4.2370     3.1990    -0.6130 c          1 678       0.717000
     18 OX          -4.3930     2.3610    -1.5190 o          1 678      -0.737000
     19 OY          -4.6920     4.3620    -0.5870 o          1 678      -0.737000
     20 C12         -3.4280     0.2640     0.5930 cc         1 678      -0.032000
     21 C13         -2.7690    -0.9400     0.5410 cd         1 678      -0.197500
     22 C14         -1.3450    -1.0980     0.4340 c          1 678       0.597500
     23 O6          -0.7910    -2.2230     0.3990 o          1 678      -0.689100
     24 BR5         -3.7760    -2.5490     0.6260 br         1 678      -0.166700
     25 HC2          5.9900     2.1130    -0.5320 ha         1 678       0.087000
     26 HC3          3.7070     3.0130    -0.5790 ha         1 678       0.120000
     27 HC6          4.4990    -1.8140     0.4610 ha         1 678       0.103000
     28 HH11         7.9290    -2.0450    -0.3250 hn         1 678       0.358750
     29 HH12         6.2990    -2.1830    -0.8520 hn         1 678       0.358750
     30 HH21         7.5220     1.2400     0.8940 hn         1 678       0.358750
     31 HH22         8.6930     0.0750     0.4230 hn         1 678       0.358750
     32 HN3          1.0630     2.2050    -0.2780 hn         1 678       0.363000
     33 HCN4         1.5230    -1.8710     0.6420 ha         1 678       0.239000
     34 H1          -0.7850     2.3090     0.4400 ha         1 678       0.130000
     35 H31B        -2.6910     3.5780     0.8420 hc         1 678       0.019200
     36 H31A        -4.1050     2.7970     1.4860 hc         1 678       0.019200
     37 HC4         -4.5080     0.2910     0.6850 ha         1 678       0.187000
@<TRIPOS>BOND
     1     1     2 ar  
     2     1     6 ar  
     3     1     7 1   
     4     2     3 ar  
     5     2    25 1   
     6     3     4 ar  
     7     3    26 1   
     8     4     5 ar  
     9     4    10 2   
    10     5     6 ar  
    11     5    11 2   
    12     6    27 1   
    13     7     8 2   
    14     7     9 1   
    15     8    28 1   
    16     8    29 1   
    17     9    30 1   
    18     9    31 1   
    19    10    12 1   
    20    10    32 1   
    21    11    12 1   
    22    11    33 1   
    23    12    13 2   
    24    13    14 1   
    25    13    22 1   
    26    14    15 2   
    27    14    34 1   
    28    15    16 1   
    29    15    20 1   
    30    16    17 1   
    31    16    35 1   
    32    16    36 1   
    33    17    18 1   
    34    17    19 1   
    35    20    21 2   
    36    20    37 1   
    37    21    22 1   
    38    21    24 1   
    39    22    23 2   
@<TRIPOS>SUBSTRUCTURE
     1 678         1 TEMP              0 ****  ****    0 ROOT
