@<TRIPOS>MOLECULE
678
   37    39     1     0     0
SMALL
No Charge or Current Charge


@<TRIPOS>ATOM
      1 C1           5.4180     0.1300    -0.0220 ca         1 678      -0.301900
      2 C2           5.1700     1.5330    -0.0770 ca         1 678      -0.122000
      3 C3           3.8570     2.0470    -0.0050 ca         1 678      -0.126000
      4 C4           2.7980     1.1420     0.1220 ca         1 678       0.033000
      5 C5           3.0300    -0.2200     0.1770 ca         1 678      -0.045000
      6 C6           4.3190    -0.7600     0.1080 ca         1 678      -0.080000
      7 C7           6.8100    -0.3980    -0.0980 ce         1 678       0.523400
      8 N1           7.0370    -1.6400    -0.6190 nv         1 678      -0.601200
      9 N2           7.8490     0.3630     0.3590 nv         1 678      -0.585300
     10 N3           1.4360     1.4130     0.2120 na         1 678      -0.262900
     11 CN4          1.7500    -0.8610     0.3110 cc         1 678      -0.333000
     12 C8           0.7760     0.1880     0.3290 cc         1 678       0.153900
     13 C9          -0.6220     0.1690     0.4380 cd         1 678      -0.315200
     14 C10         -1.3250     1.4440     0.4230 cd         1 678      -0.121000
     15 C11         -2.7050     1.4730     0.5300 cc         1 678      -0.107200
     16 CV          -3.4910     2.7700     0.5240 c3         1 678      -0.166200
     17 CW          -4.1590     3.0520    -0.8390 c          1 678       0.717000
     18 OX          -5.2610     2.5690    -1.0510 o          1 678      -0.737000
     19 OY          -3.5070     3.6400    -1.6900 o          1 678      -0.737000
     20 C12         -3.4500     0.2480     0.6500 cc         1 678      -0.032000
     21 C13         -2.8410    -0.9850     0.6690 cd         1 678      -0.197500
     22 C14         -1.3670    -1.1200     0.5640 c          1 678       0.597500
     23 O6          -0.8350    -2.2250     0.5840 o          1 678      -0.689100
     24 Br5         -3.8830    -2.5640     0.8310 br         1 678      -0.166700
     25 HC2          5.9940     2.2350    -0.1880 ha         1 678       0.087000
     26 HC3          3.6740     3.1180    -0.0510 ha         1 678       0.120000
     27 HC6          4.4570    -1.8380     0.1670 ha         1 678       0.103000
     28 HH11         7.9840    -1.8890    -0.8700 hn         1 678       0.358750
     29 HH12         6.2820    -2.0810    -1.1260 hn         1 678       0.358750
     30 HH21         7.6190     1.1780     0.9100 hn         1 678       0.358750
     31 HH22         8.7410    -0.0830     0.5200 hn         1 678       0.358750
     32 HN3          1.0070     2.3270     0.1950 hn         1 678       0.363000
     33 HCN4         1.5490    -1.9240     0.3840 ha         1 678       0.239000
     34 H1          -0.8160     2.3960     0.3310 ha         1 678       0.130000
     35 H31B        -2.7810     3.5730     0.7540 hc         1 678       0.019200
     36 H31A        -4.2630     2.6650     1.2960 hc         1 678       0.019200
     37 HC4         -4.5330     0.3110     0.7270 ha         1 678       0.187000
@<TRIPOS>BOND
     1     1     2 ar  
     2     1     6 ar  
     3     1     7 1   
     4     2     3 ar  
     5     2    25 1   
     6     3     4 ar  
     7     3    26 1   
     8     4     5 ar  
     9     4    10 2   
    10     5     6 ar  
    11     5    11 2   
    12     6    27 1   
    13     7     8 2   
    14     7     9 1   
    15     8    28 1   
    16     8    29 1   
    17     9    30 1   
    18     9    31 1   
    19    10    12 1   
    20    10    32 1   
    21    11    12 1   
    22    11    33 1   
    23    12    13 2   
    24    13    14 1   
    25    13    22 1   
    26    14    15 2   
    27    14    34 1   
    28    15    16 1   
    29    15    20 1   
    30    16    17 1   
    31    16    35 1   
    32    16    36 1   
    33    17    18 1   
    34    17    19 1   
    35    20    21 2   
    36    20    37 1   
    37    21    22 1   
    38    21    24 1   
    39    22    23 2   
@<TRIPOS>SUBSTRUCTURE
     1 678         1 TEMP              0 ****  ****    0 ROOT
