@<TRIPOS>MOLECULE
679
   34    36     1     0     0
SMALL
abcg2


@<TRIPOS>ATOM
      1 C1           0.2130    -1.1270    -4.3380 ca         1 679      -0.093000
      2 C2           1.4060    -1.2510    -5.0320 ca         1 679      -0.105000
      3 C3           2.5440    -0.5730    -4.6200 ca         1 679      -0.115000
      4 C4           2.4600     0.2380    -3.5000 ca         1 679       0.123000
      5 C5           1.2780     0.3820    -2.7950 ca         1 679      -0.113000
      6 C6           0.1370    -0.3100    -3.2080 ca         1 679       0.021200
      7 CL7          3.8650     1.1050    -2.9700 cl         1 679      -0.212000
      8 C8          -1.1100    -0.1780    -2.4590 cc         1 679      -0.314400
      9 C9          -1.2950    -0.1870    -1.1140 cd         1 679       0.161800
     10 C10         -2.7810    -0.0790    -0.8420 c          1 679       0.559200
     11 C11         -2.4240     0.0070    -3.0920 c          1 679       0.603200
     12 O12         -2.6860     0.1050    -4.2660 o          1 679      -0.521000
     13 O13         -3.3420    -0.1750     0.2170 o          1 679      -0.460000
     14 N14         -3.3600     0.0820    -2.0670 ns         1 679      -0.495500
     15 N15         -0.3940    -0.4260    -0.1470 nu         1 679      -0.775000
     16 C16         -0.4620    -0.0410     1.2000 ca         1 679       0.226000
     17 C17         -1.0330     1.1670     1.5910 ca         1 679      -0.133000
     18 C18         -1.0460     1.5090     2.9290 ca         1 679      -0.116000
     19 C19         -0.4890     0.6590     3.8780 ca         1 679       0.146000
     20 C20          0.1220    -0.5350     3.5090 ca         1 679      -0.096600
     21 C21          0.1300    -0.8570     2.1550 ca         1 679      -0.095000
     22 CL2         -0.5160     1.1980     5.5290 cl         1 679      -0.205000
     23 C23          0.7560    -1.5270     4.4840 c          1 679       0.719600
     24 O24          0.1440    -1.7320     5.5430 o          1 679      -0.698000
     25 O25          1.8140    -2.0530     4.0960 o          1 679      -0.698000
     26 HC1         -0.6550    -1.6810    -4.6670 ha         1 679       0.125000
     27 HC2          1.4560    -1.8900    -5.9040 ha         1 679       0.111000
     28 HC3          3.4750    -0.6750    -5.1600 ha         1 679       0.122000
     29 HC5          1.2360     1.0490    -1.9430 ha         1 679       0.134000
     30 H14         -4.3550     0.1700    -2.2160 hn         1 679       0.341500
     31 H15          0.4820    -0.8320    -0.4460 hn         1 679       0.508000
     32 H17         -1.4400     1.8560     0.8630 ha         1 679       0.100000
     33 H18         -1.4760     2.4540     3.2340 ha         1 679       0.110000
     34 H21          0.6020    -1.7800     1.8420 ha         1 679       0.133000
@<TRIPOS>BOND
     1     1     2 ar  
     2     1     6 ar  
     3     1    26 1   
     4     2     3 ar  
     5     2    27 1   
     6     3     4 ar  
     7     3    28 1   
     8     4     5 ar  
     9     4     7 1   
    10     5     6 ar  
    11     5    29 1   
    12     6     8 1   
    13     8     9 2   
    14     8    11 1   
    15     9    10 1   
    16     9    15 1   
    17    10    13 2   
    18    10    14 1   
    19    11    12 2   
    20    11    14 1   
    21    14    30 1   
    22    15    16 1   
    23    15    31 1   
    24    16    17 ar  
    25    16    21 ar  
    26    17    18 ar  
    27    17    32 1   
    28    18    19 ar  
    29    18    33 1   
    30    19    20 ar  
    31    19    22 1   
    32    20    21 ar  
    33    20    23 1   
    34    21    34 1   
    35    23    24 1   
    36    23    25 1   
@<TRIPOS>SUBSTRUCTURE
     1 679         1 TEMP              0 ****  ****    0 ROOT
