@<TRIPOS>MOLECULE
679
   34    36     1     0     0
SMALL
No Charge or Current Charge


@<TRIPOS>ATOM
      1 C1           0.2360    -1.2770    -4.1430 ca         1 679      -0.093000
      2 C2           1.5080    -1.5070    -4.6950 ca         1 679      -0.105000
      3 C3           2.6130    -0.7650    -4.2440 ca         1 679      -0.115000
      4 C4           2.4410     0.2070    -3.2460 ca         1 679       0.123000
      5 C5           1.1700     0.4370    -2.6950 ca         1 679      -0.113000
      6 C6           0.0590    -0.3100    -3.1350 ca         1 679       0.021200
      7 Cl7          3.8200     1.1440    -2.6870 cl         1 679      -0.212000
      8 C8          -1.2700    -0.0750    -2.5760 cc         1 679      -0.314400
      9 C9          -1.5330    -0.0670    -1.2240 cd         1 679       0.161800
     10 C10         -3.0070     0.1770    -1.0380 c          1 679       0.559200
     11 C11         -2.5230     0.1720    -3.3000 c          1 679       0.603200
     12 O12         -2.7250     0.2440    -4.5000 o          1 679      -0.521000
     13 O13         -3.6960     0.2210    -0.0290 o          1 679      -0.460000
     14 N14         -3.4480     0.3070    -2.3180 ns         1 679      -0.495500
     15 N15         -0.6010    -0.3380    -0.2320 nu         1 679      -0.775000
     16 C16         -0.5410    -0.0420     1.1330 ca         1 679       0.226000
     17 C17         -1.2310     1.0570     1.6760 ca         1 679      -0.133000
     18 C18         -1.1350     1.3480     3.0480 ca         1 679      -0.116000
     19 C19         -0.3460     0.5470     3.8900 ca         1 679       0.146000
     20 C20          0.3600    -0.5520     3.3570 ca         1 679      -0.096600
     21 C21          0.2650    -0.8290     1.9750 ca         1 679      -0.095000
     22 Cl2         -0.2300     0.9840     5.5950 cl         1 679      -0.205000
     23 C23          1.2170    -1.4240     4.2290 c          1 679       0.719600
     24 O24          0.6800    -2.0480     5.1340 o          1 679      -0.698000
     25 O25          2.3980    -1.5420     3.9330 o          1 679      -0.698000
     26 HC1         -0.6160    -1.8540    -4.4960 ha         1 679       0.125000
     27 HC2          1.6370    -2.2590    -5.4710 ha         1 679       0.111000
     28 HC3          3.5990    -0.9400    -4.6690 ha         1 679       0.122000
     29 HC5          1.0470     1.2020    -1.9330 ha         1 679       0.134000
     30 H14         -4.4200     0.4750    -2.5290 hn         1 679       0.341500
     31 H15          0.2050    -0.8580    -0.5830 hn         1 679       0.508000
     32 H17         -1.8230     1.7050     1.0370 ha         1 679       0.100000
     33 H18         -1.6650     2.2040     3.4580 ha         1 679       0.110000
     34 H21          0.8120    -1.6720     1.5610 ha         1 679       0.133000
@<TRIPOS>BOND
     1     1     2 ar  
     2     1     6 ar  
     3     1    26 1   
     4     2     3 ar  
     5     2    27 1   
     6     3     4 ar  
     7     3    28 1   
     8     4     5 ar  
     9     4     7 1   
    10     5     6 ar  
    11     5    29 1   
    12     6     8 1   
    13     8     9 2   
    14     8    11 1   
    15     9    10 1   
    16     9    15 1   
    17    10    13 2   
    18    10    14 1   
    19    11    12 2   
    20    11    14 1   
    21    14    30 1   
    22    15    16 1   
    23    15    31 1   
    24    16    17 ar  
    25    16    21 ar  
    26    17    18 ar  
    27    17    32 1   
    28    18    19 ar  
    29    18    33 1   
    30    19    20 ar  
    31    19    22 1   
    32    20    21 ar  
    33    20    23 1   
    34    21    34 1   
    35    23    24 1   
    36    23    25 1   
@<TRIPOS>SUBSTRUCTURE
     1 679         1 TEMP              0 ****  ****    0 ROOT
