@<TRIPOS>MOLECULE
67A
   42    45     1     0     0
SMALL
bcc


@<TRIPOS>ATOM
      1 N3          -1.1740     0.7380     0.1030 nc         1 67A      -0.384400
      2 C7          -2.2970     2.7920    -0.5940 c          1 67A       0.473000
      3 C8          -1.0510     3.1560    -1.2060 cc         1 67A      -0.317200
      4 C10          5.1810     0.5840     1.2380 c3         1 67A       0.856700
      5 C13          2.3240     0.7880    -0.1830 ca         1 67A      -0.139000
      6 C15         -3.1140    -1.4730    -0.0250 ca         1 67A       0.025800
      7 C17          3.3870    -0.0950    -0.1010 ca         1 67A       0.108100
      8 C22          0.8360    -1.1010    -0.4110 ca         1 67A      -0.102000
      9 C24          3.2080    -1.4650    -0.1690 ca         1 67A      -0.119000
     10 C26         -2.9730    -1.3790    -1.4030 ca         1 67A      -0.116500
     11 C28         -2.1120    -3.6490    -0.0510 ca         1 67A      -0.127000
     12 C1          -2.2430     1.4660     0.0410 cd         1 67A       0.350900
     13 C2          -3.4380     0.9120     0.6710 cd         1 67A      -0.122200
     14 N4          -3.7280    -0.4180     0.6950 na         1 67A       0.178300
     15 N5          -0.0590     1.1540    -0.4620 na         1 67A      -0.179900
     16 N6          -4.8050    -0.6830     1.4300 nd         1 67A      -0.501800
     17 C9           0.0180     2.3310    -1.1270 cd         1 67A       0.082000
     18 C11         -4.4050     1.5290     1.4350 cc         1 67A      -0.251300
     19 C12          1.0490     0.2700    -0.3520 ca         1 67A       0.151600
     20 C14         -5.2180     0.4820     1.8890 cc         1 67A       0.297200
     21 O18         -3.3110     3.4830    -0.5990 o          1 67A      -0.527100
     22 F19          4.4390     1.3830     2.0040 f          1 67A      -0.226300
     23 F20          5.3110    -0.5700     1.8940 f          1 67A      -0.226300
     24 F21          6.3800     1.1250     1.1040 f          1 67A      -0.226300
     25 C23          1.9190    -1.9570    -0.3200 ca         1 67A      -0.106000
     26 C25         -2.6900    -2.6040     0.6560 ca         1 67A      -0.116500
     27 C27         -2.3820    -2.4230    -2.1010 ca         1 67A      -0.127000
     28 C29         -1.9520    -3.5600    -1.4280 ca         1 67A      -0.133000
     29 H1          -0.9670     4.0840    -1.7550 ha         1 67A       0.170000
     30 H2           2.4950     1.8530    -0.1080 ha         1 67A       0.161000
     31 H3          -0.1630    -1.4930    -0.5400 ha         1 67A       0.170000
     32 H4           4.0530    -2.1380    -0.1240 ha         1 67A       0.160000
     33 H5          -3.3280    -0.5040    -1.9310 ha         1 67A       0.151000
     34 H6          -1.7760    -4.5310     0.4780 ha         1 67A       0.137000
     35 H7           0.9620     2.5600    -1.6010 h4         1 67A       0.164000
     36 H8          -4.4890     2.5780     1.6610 ha         1 67A       0.179000
     37 H9          -6.0880     0.5390     2.5240 h4         1 67A       0.041100
     38 H10          1.7610    -3.0250    -0.3780 ha         1 67A       0.149000
     39 H11         -2.8050    -2.6650     1.7300 ha         1 67A       0.151000
     40 H12         -2.2690    -2.3500    -3.1740 ha         1 67A       0.137000
     41 H13         -1.4940    -4.3740    -1.9740 ha         1 67A       0.135000
     42 O16          4.6680     0.4260     0.0090 os         1 67A      -0.380900
@<TRIPOS>BOND
     1     1    12 2   
     2     1    15 1   
     3     2     3 1   
     4     2    12 1   
     5     2    21 2   
     6     3    17 2   
     7     3    29 1   
     8     4    22 1   
     9     4    23 1   
    10     4    24 1   
    11     4    42 1   
    12     5     7 ar  
    13     5    19 ar  
    14     5    30 1   
    15     6    10 ar  
    16     6    14 1   
    17     6    26 ar  
    18     7     9 ar  
    19     7    42 1   
    20     8    19 ar  
    21     8    25 ar  
    22     8    31 1   
    23     9    25 ar  
    24     9    32 1   
    25    10    27 ar  
    26    10    33 1   
    27    11    26 ar  
    28    11    28 ar  
    29    11    34 1   
    30    12    13 1   
    31    13    14 1   
    32    13    18 2   
    33    14    16 1   
    34    15    17 1   
    35    15    19 1   
    36    16    20 2   
    37    17    35 1   
    38    18    20 1   
    39    18    36 1   
    40    20    37 1   
    41    25    38 1   
    42    26    39 1   
    43    27    28 ar  
    44    27    40 1   
    45    28    41 1   
@<TRIPOS>SUBSTRUCTURE
     1 67A         1 TEMP              0 ****  ****    0 ROOT
