@<TRIPOS>MOLECULE
67A
   42    45     1     0     0
SMALL
No Charge or Current Charge


@<TRIPOS>ATOM
      1 N3          -1.2850     0.7160    -0.3750 nc         1 67A      -0.384400
      2 C7          -2.2000     3.0330    -0.3010 c          1 67A       0.473000
      3 C8          -0.9640     3.5130    -0.9240 cc         1 67A      -0.367200
      4 C10          3.6410    -1.0920     1.6610 c3         1 67A       0.516000
      5 C13          1.7250     0.0160    -0.3210 ca         1 67A      -0.121000
      6 C15         -2.6960    -1.4100     0.7730 ca         1 67A       0.025800
      7 C17          2.7860    -0.8500    -0.6710 ca         1 67A       0.108100
      8 C22          1.0400     0.1330    -2.6540 ca         1 67A      -0.084000
      9 C24          2.9620    -1.2130    -2.0170 ca         1 67A      -0.101000
     10 C26         -2.6080    -2.1780    -0.4060 ca         1 67A      -0.098500
     11 C28         -0.7420    -2.5740     1.6610 ca         1 67A      -0.109000
     12 C1          -2.2900     1.5420    -0.0400 cd         1 67A       0.350900
     13 C2          -3.4580     0.8990     0.5780 cd         1 67A      -0.172900
     14 N4          -3.7030    -0.4520     0.9160 na         1 67A       0.229000
     15 N5          -0.2030     1.3480    -0.9540 na         1 67A      -0.318300
     16 N6          -4.9380    -0.6900     1.4940 nd         1 67A      -0.501800
     17 C9           0.0760     2.6840    -1.2660 cd         1 67A       0.032000
     18 C11         -4.6210     1.5170     0.9570 cc         1 67A      -0.168000
     19 C12          0.8580     0.5090    -1.3120 ca         1 67A       0.290000
     20 C14         -5.4610     0.5200     1.4880 cc         1 67A       0.231900
     21 O18         -3.0750     3.8480    -0.0270 o          1 67A      -0.527100
     22 F19          3.7940     0.2270     1.9230 f          1 67A      -0.105000
     23 F20          2.4840    -1.4980     2.2310 f          1 67A      -0.105000
     24 F21          4.6410    -1.7370     2.3010 f          1 67A      -0.105000
     25 C23          2.0940    -0.7270    -3.0090 ca         1 67A      -0.088000
     26 C25         -1.7650    -1.6200     1.8100 ca         1 67A      -0.098500
     27 C27         -1.5820    -3.1280    -0.5560 ca         1 67A      -0.109000
     28 C29         -0.6480    -3.3240     0.4760 ca         1 67A      -0.115000
     29 H1          -0.9140     4.5820    -1.1000 ha         1 67A       0.220000
     30 H2           1.5470     0.3160     0.7050 ha         1 67A       0.143000
     31 H3           0.3600     0.5050    -3.4150 ha         1 67A       0.152000
     32 H4           3.7770    -1.8800    -2.2910 ha         1 67A       0.142000
     33 H5          -3.3260    -2.0250    -1.2090 ha         1 67A       0.133000
     34 H6          -0.0240    -2.7300     2.4620 ha         1 67A       0.119000
     35 H7           1.0220     2.9730    -1.7260 h4         1 67A       0.214000
     36 H8          -4.9020     2.5610     0.8840 ha         1 67A       0.161000
     37 H9          -6.4590     0.6560     1.8840 h4         1 67A       0.041100
     38 H10          2.2350    -1.0170    -4.0480 ha         1 67A       0.131000
     39 H11         -1.8310    -1.0370     2.7260 ha         1 67A       0.133000
     40 H12         -1.5110    -3.7110    -1.4720 ha         1 67A       0.119000
     41 H13          0.1460    -4.0580     0.3590 ha         1 67A       0.117000
     42 O16          3.6790    -1.3720     0.2470 os         1 67A      -0.404100
@<TRIPOS>BOND
     1     1    12 2   
     2     1    15 1   
     3     2     3 1   
     4     2    12 1   
     5     2    21 2   
     6     3    17 2   
     7     3    29 1   
     8     4    22 1   
     9     4    23 1   
    10     4    24 1   
    11     4    42 1   
    12     5     7 ar  
    13     5    19 ar  
    14     5    30 1   
    15     6    10 ar  
    16     6    14 1   
    17     6    26 ar  
    18     7     9 ar  
    19     7    42 1   
    20     8    19 ar  
    21     8    25 ar  
    22     8    31 1   
    23     9    25 ar  
    24     9    32 1   
    25    10    27 ar  
    26    10    33 1   
    27    11    26 ar  
    28    11    28 ar  
    29    11    34 1   
    30    12    13 1   
    31    13    14 1   
    32    13    18 2   
    33    14    16 1   
    34    15    17 1   
    35    15    19 1   
    36    16    20 2   
    37    17    35 1   
    38    18    20 1   
    39    18    36 1   
    40    20    37 1   
    41    25    38 1   
    42    26    39 1   
    43    27    28 ar  
    44    27    40 1   
    45    28    41 1   
@<TRIPOS>SUBSTRUCTURE
     1 67A         1 TEMP              0 ****  ****    0 ROOT
