@<TRIPOS>MOLECULE
67B
   39    41     1     0     0
SMALL
bcc


@<TRIPOS>ATOM
      1 C4           2.9130     1.7320    -0.8500 ca         1 67B      -0.083000
      2 C2           3.8890    -0.4650    -0.2100 c          1 67B       0.681700
      3 C1           4.9890    -2.2050     1.0520 c3         1 67B       0.087300
      4 C5           1.8250     2.5530    -1.1030 ca         1 67B      -0.137000
      5 C8           1.4090    -0.0410    -0.2330 ca         1 67B      -0.104000
      6 C9          -1.0610     0.2370    -0.3830 cc         1 67B      -0.059400
      7 C6           0.5330     2.0740    -0.9440 ca         1 67B      -0.101000
      8 C10         -1.3690    -1.0120    -0.8160 cd         1 67B      -0.011400
      9 C12         -3.7120    -0.9220    -0.1910 c          1 67B       0.733100
     10 N1          -2.6180    -1.5740    -0.7290 n          1 67B      -0.343000
     11 C13         -3.3900     0.3940     0.2640 cd         1 67B      -0.205900
     12 N2          -4.2440     1.2660     0.8640 na         1 67B      -0.125100
     13 C16         -3.5700     2.3940     1.1850 cd         1 67B      -0.121300
     14 C15         -2.2570     2.2680     0.7910 cc         1 67B      -0.206000
     15 C14         -2.1350     0.9870     0.1950 cc         1 67B      -0.035800
     16 C7           0.3060     0.7650    -0.5170 ca         1 67B      -0.028800
     17 C3           2.7060     0.4330    -0.3980 ca         1 67B      -0.142600
     18 O            4.7350    -0.5290    -1.0950 o          1 67B      -0.597100
     19 N            3.9570    -1.1970     0.9170 n          1 67B      -0.475800
     20 C            3.2000    -0.9310     2.1250 c3         1 67B       0.087300
     21 H1           3.9190     2.1060    -0.9920 ha         1 67B       0.147000
     22 H2           5.8760    -1.8090     1.5530 h1         1 67B       0.041867
     23 H3           4.6020    -3.0290     1.6500 h1         1 67B       0.041867
     24 H4           5.2810    -2.5930     0.0810 h1         1 67B       0.041867
     25 H5           1.9840     3.5680    -1.4410 ha         1 67B       0.136000
     26 H6           1.2460    -1.0510     0.1230 ha         1 67B       0.134000
     27 H7          -0.3040     2.7200    -1.1780 ha         1 67B       0.140000
     28 H8          -0.6260    -1.6410    -1.2870 h4         1 67B       0.152000
     29 H9          -3.7980    -3.2530    -1.1160 h1         1 67B       0.055367
     30 H10         -2.5380    -2.9460    -2.3150 h1         1 67B       0.055367
     31 H11         -2.1110    -3.6090    -0.7270 h1         1 67B       0.055367
     32 H12         -5.2190     1.0930     1.0480 hn         1 67B       0.315700
     33 H13         -4.0660     3.2160     1.6740 h4         1 67B       0.167000
     34 H14         -1.4880     3.0100     0.9290 ha         1 67B       0.159000
     35 H15          2.4600    -1.7100     2.3160 h1         1 67B       0.041867
     36 H16          3.8840    -0.8970     2.9740 h1         1 67B       0.041867
     37 H17          2.6920     0.0270     2.0760 h1         1 67B       0.041867
     38 C11         -2.7740    -2.9240    -1.2530 c3         1 67B       0.071300
     39 O1          -4.8270    -1.4350    -0.1180 o          1 67B      -0.651500
@<TRIPOS>BOND
     1     1     4 ar  
     2     1    17 ar  
     3     1    21 1   
     4     2    17 1   
     5     2    18 2   
     6     2    19 1   
     7     3    19 1   
     8     3    22 1   
     9     3    23 1   
    10     3    24 1   
    11     4     7 ar  
    12     4    25 1   
    13     5    16 ar  
    14     5    17 ar  
    15     5    26 1   
    16     6     8 2   
    17     6    15 1   
    18     6    16 1   
    19     7    16 ar  
    20     7    27 1   
    21     8    10 1   
    22     8    28 1   
    23     9    10 1   
    24     9    11 1   
    25     9    39 2   
    26    10    38 1   
    27    11    12 1   
    28    11    15 2   
    29    12    13 1   
    30    12    32 1   
    31    13    14 2   
    32    13    33 1   
    33    14    15 1   
    34    14    34 1   
    35    19    20 1   
    36    20    35 1   
    37    20    36 1   
    38    20    37 1   
    39    29    38 1   
    40    30    38 1   
    41    31    38 1   
@<TRIPOS>SUBSTRUCTURE
     1 67B         1 TEMP              0 ****  ****    0 ROOT
