@<TRIPOS>MOLECULE
67B
   39    41     1     0     0
SMALL
No Charge or Current Charge


@<TRIPOS>ATOM
      1 C4           2.9020     1.8580    -0.8050 ca         1 67B      -0.065000
      2 C2           3.9730    -0.3270    -0.1370 c          1 67B       0.614700
      3 C1           5.0300    -2.3470     0.8910 c3         1 67B       0.087300
      4 C5           1.7820     2.6700    -1.0310 ca         1 67B      -0.119000
      5 C8           1.4320     0.0230    -0.1910 ca         1 67B      -0.086000
      6 C9          -1.0690     0.2940    -0.2160 cc         1 67B      -0.059400
      7 C6           0.4880     2.1650    -0.8270 ca         1 67B      -0.083000
      8 C10         -1.2650    -1.0250    -0.6100 cd         1 67B      -0.061400
      9 C12         -3.7020    -0.9520    -0.2100 c          1 67B       0.590600
     10 N1          -2.5260    -1.6460    -0.5920 n          1 67B      -0.276000
     11 C13         -3.4710     0.4540     0.1720 cd         1 67B      -0.256600
     12 N2          -4.3800     1.4300     0.6090 na         1 67B      -0.074000
     13 C16         -3.6850     2.6150     0.8990 cd         1 67B      -0.154000
     14 C15         -2.3660     2.3610     0.6300 cc         1 67B      -0.188000
     15 C14         -2.2430     1.0360     0.1650 cc         1 67B      -0.035800
     16 C7           0.2920     0.8340    -0.4040 ca         1 67B      -0.028800
     17 C3           2.7420     0.5300    -0.3620 ca         1 67B      -0.142600
     18 O            4.9670    -0.1760    -0.8390 o          1 67B      -0.597100
     19 N            3.9280    -1.3620     0.8290 n          1 67B      -0.408800
     20 C            3.1370    -1.2060     2.0730 c3         1 67B       0.087300
     21 H1           3.8980     2.2660    -0.9680 ha         1 67B       0.129000
     22 H2           5.9360    -1.8660     1.2800 h1         1 67B       0.041867
     23 H3           4.7550    -3.1810     1.5490 h1         1 67B       0.041867
     24 H4           5.2330    -2.7440    -0.1120 h1         1 67B       0.041867
     25 H5           1.9150     3.6930    -1.3760 ha         1 67B       0.118000
     26 H6           1.3020    -1.0090     0.1200 ha         1 67B       0.116000
     27 H7          -0.3600     2.8020    -1.0570 ha         1 67B       0.122000
     28 H8          -0.4800    -1.6690    -0.9930 h4         1 67B       0.202000
     29 H9          -3.1430    -3.6360    -0.2020 h1         1 67B       0.055367
     30 H10         -3.2780    -3.1250    -1.9090 h1         1 67B       0.055367
     31 H11         -1.6800    -3.5050    -1.2110 h1         1 67B       0.055367
     32 H12         -5.3830     1.2920     0.7160 hn         1 67B       0.366000
     33 H13         -4.1720     3.5080     1.2770 h4         1 67B       0.149000
     34 H14         -1.5470     3.0560     0.7830 ha         1 67B       0.141000
     35 H15          2.2550    -1.8580     2.0360 h1         1 67B       0.041867
     36 H16          3.7450    -1.4870     2.9430 h1         1 67B       0.041867
     37 H17          2.8160    -0.1650     2.2030 h1         1 67B       0.041867
     38 C11         -2.6620    -3.0620    -1.0040 c3         1 67B       0.071300
     39 O1          -4.8140    -1.4680    -0.1960 o          1 67B      -0.576000
@<TRIPOS>BOND
     1     1     4 ar  
     2     1    17 ar  
     3     1    21 1   
     4     2    17 1   
     5     2    18 2   
     6     2    19 1   
     7     3    19 1   
     8     3    22 1   
     9     3    23 1   
    10     3    24 1   
    11     4     7 ar  
    12     4    25 1   
    13     5    16 ar  
    14     5    17 ar  
    15     5    26 1   
    16     6     8 2   
    17     6    15 1   
    18     6    16 1   
    19     7    16 ar  
    20     7    27 1   
    21     8    10 1   
    22     8    28 1   
    23     9    10 1   
    24     9    11 1   
    25     9    39 2   
    26    10    38 1   
    27    11    12 1   
    28    11    15 2   
    29    12    13 1   
    30    12    32 1   
    31    13    14 2   
    32    13    33 1   
    33    14    15 1   
    34    14    34 1   
    35    19    20 1   
    36    20    35 1   
    37    20    36 1   
    38    20    37 1   
    39    29    38 1   
    40    30    38 1   
    41    31    38 1   
@<TRIPOS>SUBSTRUCTURE
     1 67B         1 TEMP              0 ****  ****    0 ROOT
