@<TRIPOS>MOLECULE
67C
   46    48     1     0     0
SMALL
No Charge or Current Charge


@<TRIPOS>ATOM
      1 C1           5.9560     2.5960     0.5410 c3         1 67C       0.086300
      2 N1          -2.6630     0.2480    -0.4310 n          1 67C      -0.277000
      3 O1          -4.7050    -0.8330    -0.1010 o          1 67C      -0.574000
      4 C2           3.7910     1.4620     0.0120 c          1 67C       0.614700
      5 N2          -3.1940    -3.4290     0.3040 na         1 67C      -0.075000
      6 C3           3.0360     0.2040    -0.3730 ca         1 67C      -0.141600
      7 C4           1.6380     0.1510    -0.1720 ca         1 67C      -0.067000
      8 C5           0.8830    -0.9950    -0.5150 ca         1 67C      -0.025800
      9 C6           1.5560    -2.0870    -1.1020 ca         1 67C      -0.084000
     10 C7           2.9390    -2.0370    -1.3350 ca         1 67C      -0.119000
     11 C8           3.6770    -0.8990    -0.9780 ca         1 67C      -0.087000
     12 C9          -0.5750    -1.0380    -0.2870 cc         1 67C      -0.066400
     13 C10         -1.2630     0.1510    -0.5030 cd         1 67C      -0.053400
     14 C15         -3.4830    -0.8810    -0.1690 c          1 67C       0.587600
     15 C12         -3.3060     2.4570     0.5990 c3         1 67C      -0.065200
     16 C13         -3.9540     3.8040     0.3490 c2         1 67C      -0.224200
     17 C14         -5.0830     4.2380     0.9300 c2         1 67C      -0.305000
     18 C16         -2.7300    -2.1360     0.0220 cd         1 67C      -0.257600
     19 C19         -2.0990    -4.2960     0.4450 cd         1 67C      -0.154000
     20 C18         -0.9790    -3.5330     0.2400 cc         1 67C      -0.189000
     21 C17         -1.3740    -2.2090    -0.0380 cc         1 67C      -0.034800
     22 O            3.2500     2.5590    -0.0780 o          1 67C      -0.598100
     23 N            5.1530     1.3630     0.3910 n          1 67C      -0.406800
     24 C            5.6550     0.1760     1.1230 c3         1 67C       0.086300
     25 H1           5.8300     3.2350    -0.3430 h1         1 67C       0.042033
     26 H2           5.6300     3.1450     1.4340 h1         1 67C       0.042033
     27 H3           7.0200     2.3440     0.6420 h1         1 67C       0.042033
     28 H4          -4.1710    -3.6930     0.4070 hn         1 67C       0.366000
     29 H5           1.1490     0.9990     0.3010 ha         1 67C       0.125000
     30 H6           1.0050    -2.9610    -1.4350 ha         1 67C       0.123000
     31 H7           3.4370    -2.8770    -1.8130 ha         1 67C       0.116000
     32 H8           4.7400    -0.8710    -1.2020 ha         1 67C       0.118000
     33 H9          -0.7880     1.0890    -0.7720 h4         1 67C       0.206000
     34 H10         -2.7810     2.0810    -1.4670 h1         1 67C       0.066200
     35 H11         -4.3450     1.4230    -0.9980 h1         1 67C       0.066200
     36 H12         -3.8250     1.9270     1.4070 hc         1 67C       0.058200
     37 H13         -2.2720     2.5990     0.9360 hc         1 67C       0.058200
     38 H14         -3.4190     4.4410    -0.3610 ha         1 67C       0.166000
     39 H15         -5.4970     5.2240     0.7090 ha         1 67C       0.164500
     40 H16         -5.6370     3.6270     1.6450 ha         1 67C       0.164500
     41 H17         -2.2040    -5.3480     0.6880 h4         1 67C       0.148000
     42 H18          0.0450    -3.8850     0.3160 ha         1 67C       0.140000
     43 H19          6.2790    -0.4330     0.4580 h1         1 67C       0.042033
     44 H20          6.2600     0.4930     1.9810 h1         1 67C       0.042033
     45 H21          4.8210    -0.4300     1.4980 h1         1 67C       0.042033
     46 C11         -3.3110     1.5620    -0.6580 c3         1 67C       0.094000
@<TRIPOS>BOND
     1     1    23 1   
     2     1    25 1   
     3     1    26 1   
     4     1    27 1   
     5     2    13 1   
     6     2    14 1   
     7     2    46 1   
     8     3    14 2   
     9     4     6 1   
    10     4    22 2   
    11     4    23 1   
    12     5    18 1   
    13     5    19 1   
    14     5    28 1   
    15     6     7 ar  
    16     6    11 ar  
    17     7     8 ar  
    18     7    29 1   
    19     8     9 ar  
    20     8    12 1   
    21     9    10 ar  
    22     9    30 1   
    23    10    11 ar  
    24    10    31 1   
    25    11    32 1   
    26    12    13 2   
    27    12    21 1   
    28    13    33 1   
    29    14    18 1   
    30    15    16 1   
    31    15    36 1   
    32    15    37 1   
    33    15    46 1   
    34    16    17 2   
    35    16    38 1   
    36    17    39 1   
    37    17    40 1   
    38    18    21 2   
    39    19    20 2   
    40    19    41 1   
    41    20    21 1   
    42    20    42 1   
    43    23    24 1   
    44    24    43 1   
    45    24    44 1   
    46    24    45 1   
    47    34    46 1   
    48    35    46 1   
@<TRIPOS>SUBSTRUCTURE
     1 67C         1 TEMP              0 ****  ****    0 ROOT
