@<TRIPOS>MOLECULE
67C
   46    48     1     0     0
SMALL
abcg2


@<TRIPOS>ATOM
      1 C1           5.8770     2.3830     0.7660 c3         1 67C       0.086300
      2 N1          -2.6260     0.2450    -0.4600 n          1 67C      -0.277000
      3 O1          -4.5730    -0.7560     0.2140 o          1 67C      -0.574000
      4 C2           3.8770     1.4270    -0.1910 c          1 67C       0.614700
      5 N2          -2.9930    -3.2010     0.6640 na         1 67C      -0.075000
      6 C3           3.0950     0.2100    -0.5780 ca         1 67C      -0.141600
      7 C4           1.7260     0.1910    -0.3370 ca         1 67C      -0.067000
      8 C5           0.9400    -0.8850    -0.7460 ca         1 67C      -0.025800
      9 C6           1.5540    -1.9380    -1.4270 ca         1 67C      -0.084000
     10 C7           2.9160    -1.9150    -1.6840 ca         1 67C      -0.119000
     11 C8           3.6920    -0.8480    -1.2560 ca         1 67C      -0.087000
     12 C9          -0.5090    -0.9060    -0.4810 cc         1 67C      -0.066400
     13 C10         -1.2720     0.1990    -0.6760 cd         1 67C      -0.053400
     14 C15         -3.3640    -0.8300     0.0020 c          1 67C       0.587600
     15 C12         -3.3850     2.3490     0.6090 c3         1 67C      -0.065200
     16 C13         -4.0070     3.6840     0.3480 c2         1 67C      -0.224200
     17 C14         -5.1300     4.1170     0.9090 c2         1 67C      -0.305000
     18 C16         -2.5650    -1.9960     0.1980 cd         1 67C      -0.257600
     19 C19         -1.9360    -4.0390     0.7570 cd         1 67C      -0.154000
     20 C18         -0.7970    -3.3850     0.3500 cc         1 67C      -0.189000
     21 C17         -1.1930    -2.0730    -0.0140 cc         1 67C      -0.034800
     22 O            3.4840     2.5310    -0.5500 o          1 67C      -0.598100
     23 N            5.0140     1.2480     0.5080 n          1 67C      -0.406800
     24 C            5.3450     0.0510     1.2540 c3         1 67C       0.086300
     25 H1           5.7910     3.1210    -0.0250 h1         1 67C       0.042033
     26 H2           5.6390     2.8600     1.7200 h1         1 67C       0.042033
     27 H3           6.9090     2.0370     0.8070 h1         1 67C       0.042033
     28 H4          -3.9450    -3.4300     0.9000 hn         1 67C       0.366000
     29 H5           1.2680     1.0120     0.2020 ha         1 67C       0.125000
     30 H6           0.9610    -2.7720    -1.7800 ha         1 67C       0.123000
     31 H7           3.3740    -2.7310    -2.2250 ha         1 67C       0.116000
     32 H8           4.7560    -0.8400    -1.4590 ha         1 67C       0.118000
     33 H9          -0.8450     1.1210    -1.0470 h4         1 67C       0.206000
     34 H10         -2.7770     2.0590    -1.4460 h1         1 67C       0.066200
     35 H11         -4.3150     1.3150    -1.0480 h1         1 67C       0.066200
     36 H12         -3.9480     1.8100     1.3730 hc         1 67C       0.058200
     37 H13         -2.3680     2.4900     0.9910 hc         1 67C       0.058200
     38 H14         -3.4870     4.3240    -0.3590 ha         1 67C       0.166000
     39 H15         -5.5360     5.0950     0.6840 ha         1 67C       0.164500
     40 H16         -5.6830     3.5110     1.6170 ha         1 67C       0.164500
     41 H17         -2.0610    -5.0500     1.1100 h4         1 67C       0.148000
     42 H18          0.1960    -3.8040     0.3280 ha         1 67C       0.140000
     43 H19          6.2590    -0.4100     0.8750 h1         1 67C       0.042033
     44 H20          5.5050     0.3100     2.3030 h1         1 67C       0.042033
     45 H21          4.5450    -0.6800     1.2130 h1         1 67C       0.042033
     46 C11         -3.3150     1.5140    -0.6690 c3         1 67C       0.094000
@<TRIPOS>BOND
     1     1    23 1   
     2     1    25 1   
     3     1    26 1   
     4     1    27 1   
     5     2    13 1   
     6     2    14 1   
     7     2    46 1   
     8     3    14 2   
     9     4     6 1   
    10     4    22 2   
    11     4    23 1   
    12     5    18 1   
    13     5    19 1   
    14     5    28 1   
    15     6     7 ar  
    16     6    11 ar  
    17     7     8 ar  
    18     7    29 1   
    19     8     9 ar  
    20     8    12 1   
    21     9    10 ar  
    22     9    30 1   
    23    10    11 ar  
    24    10    31 1   
    25    11    32 1   
    26    12    13 2   
    27    12    21 1   
    28    13    33 1   
    29    14    18 1   
    30    15    16 1   
    31    15    36 1   
    32    15    37 1   
    33    15    46 1   
    34    16    17 2   
    35    16    38 1   
    36    17    39 1   
    37    17    40 1   
    38    18    21 2   
    39    19    20 2   
    40    19    41 1   
    41    20    21 1   
    42    20    42 1   
    43    23    24 1   
    44    24    43 1   
    45    24    44 1   
    46    24    45 1   
    47    34    46 1   
    48    35    46 1   
@<TRIPOS>SUBSTRUCTURE
     1 67C         1 TEMP              0 ****  ****    0 ROOT
