@<TRIPOS>MOLECULE
67D
   61    66     1     0     0
SMALL
No Charge or Current Charge


@<TRIPOS>ATOM
      1 S           -3.0710     3.5430    -0.1750 s6         1 67D       1.436500
      2 N           -2.6210     1.9470    -0.2050 ns         1 67D      -0.632300
      3 C7           1.2400    -4.4040    -2.0410 cc         1 67D      -0.260100
      4 C6           0.6630    -2.2990    -2.5970 cc         1 67D      -0.005000
      5 C5           0.6790    -0.9080    -2.3580 cc         1 67D       0.066400
      6 C4           1.3200    -0.4350    -1.2550 cd         1 67D       0.314500
      7 C3           0.5160    -4.3620    -3.2210 cd         1 67D      -0.033400
      8 C2           1.9170    -2.5770    -0.5350 cc         1 67D       0.546400
      9 C8           0.4530     1.2030    -2.4570 cd         1 67D       0.392700
     10 C9          -2.3100     1.1620     0.8580 c          1 67D       0.621100
     11 C11         -2.6730    -1.3570     0.9270 c3         1 67D       0.014800
     12 C10         -1.7410    -0.2070     0.4950 c3         1 67D      -0.162400
     13 N1           1.2900    -3.0800    -1.6930 na         1 67D      -0.120400
     14 N3           1.9660    -1.2390    -0.3090 nd         1 67D      -0.661000
     15 N7           0.1350     0.0870    -3.1130 nc         1 67D      -0.528100
     16 N9           1.1910     0.9300    -1.3020 na         1 67D      -0.249300
     17 C1           1.7240     1.8890    -0.3390 c5         1 67D       0.308300
     18 O4           0.6760     2.2820     0.5810 os         1 67D      -0.419000
     19 C15          2.3220     3.2220    -0.9210 c5         1 67D       0.081300
     20 O2           3.7310     3.1570    -1.2230 oh         1 67D      -0.693000
     21 C14          2.0550     4.1990     0.2550 c5         1 67D       0.109300
     22 O3           3.0480     4.0250     1.2730 oh         1 67D      -0.698000
     23 C13          0.6290     3.7310     0.6930 c5         1 67D       0.164300
     24 C12         -0.5320     4.2740    -0.1870 c3         1 67D       0.188600
     25 O5          -1.7470     4.1560     0.5790 os         1 67D      -0.542700
     26 O2P         -3.1060     4.0150    -1.5620 o          1 67D      -0.540000
     27 O3P         -4.2310     3.6920     0.7100 o          1 67D      -0.540000
     28 N2           0.1640    -3.0530    -3.5590 nd         1 67D      -0.264600
     29 O13         -2.4350     1.5240     2.0170 o          1 67D      -0.514100
     30 C19         -2.0920    -2.7130     0.6250 cc         1 67D      -0.148400
     31 C20         -0.9810    -3.3400     1.2870 ca         1 67D      -0.098800
     32 C21         -0.7850    -4.5610     0.7060 ca         1 67D      -0.050200
     33 N22         -1.7010    -4.7740    -0.3060 na         1 67D      -0.226700
     34 C23         -2.5100    -3.6120    -0.3510 cd         1 67D      -0.163100
     35 C36          0.2360    -5.4200     1.1330 ca         1 67D      -0.140000
     36 C37          1.0690    -4.9930     2.1890 ca         1 67D      -0.092000
     37 C38          0.8630    -3.7290     2.7920 ca         1 67D      -0.137000
     38 C39         -0.1760    -2.8860     2.3430 ca         1 67D      -0.048000
     39 H1          -2.4920     1.6130    -1.1420 hn         1 67D       0.341500
     40 H3           0.2290    -5.2010    -3.8510 h4         1 67D       0.230000
     41 H4           2.3780    -3.2870     0.1400 h5         1 67D       0.058100
     42 H5           0.1920     2.2110    -2.7530 h5         1 67D       0.059800
     43 H6          -2.8740    -1.2810     2.0030 hc         1 67D       0.059700
     44 H7          -3.6420    -1.2470     0.4220 hc         1 67D       0.059700
     45 H8          -1.5780    -0.2770    -0.5860 hc         1 67D       0.072700
     46 H9          -0.7800    -0.3200     1.0090 hc         1 67D       0.072700
     47 H10          2.5040     1.3600     0.2250 h2         1 67D       0.125700
     48 H11          1.7620     3.5510    -1.8070 h1         1 67D       0.050700
     49 H12          3.8330     2.7530    -2.1190 ho         1 67D       0.520000
     50 H13          2.0460     5.2440    -0.0890 h1         1 67D       0.058700
     51 H14          3.8570     3.7630     0.7640 ho         1 67D       0.526000
     52 H15          0.4290     4.0130     1.7350 h1         1 67D       0.119700
     53 H16         -0.3460     5.3280    -0.4300 h1         1 67D       0.052200
     54 H17         -0.5650     3.7100    -1.1270 h1         1 67D       0.052200
     55 H18         -1.7710    -5.5910    -0.9040 hn         1 67D       0.347000
     56 H19         -3.3190    -3.5100    -1.0700 h4         1 67D       0.208000
     57 H20          0.3840    -6.3910     0.6650 ha         1 67D       0.108000
     58 H21          1.8700    -5.6380     2.5420 ha         1 67D       0.105000
     59 H22          1.5060    -3.4070     3.6070 ha         1 67D       0.125000
     60 H23         -0.3450    -1.9160     2.8040 ha         1 67D       0.138000
     61 H2           1.6760    -5.2190    -1.4710 h4         1 67D       0.233000
@<TRIPOS>BOND
     1     1     2 1   
     2     1    25 1   
     3     1    26 2   
     4     1    27 2   
     5     2    10 1   
     6     2    39 1   
     7     3     7 2   
     8     3    13 1   
     9     3    61 1   
    10     4     5 1   
    11     4    13 1   
    12     4    28 2   
    13     5     6 2   
    14     5    15 1   
    15     6    14 1   
    16     6    16 1   
    17     7    28 1   
    18     7    40 1   
    19     8    13 1   
    20     8    14 2   
    21     8    41 1   
    22     9    15 2   
    23     9    16 1   
    24     9    42 1   
    25    10    12 1   
    26    10    29 2   
    27    11    12 1   
    28    11    30 1   
    29    11    43 1   
    30    11    44 1   
    31    12    45 1   
    32    12    46 1   
    33    16    17 1   
    34    17    18 1   
    35    17    19 1   
    36    17    47 1   
    37    18    23 1   
    38    19    20 1   
    39    19    21 1   
    40    19    48 1   
    41    20    49 1   
    42    21    22 1   
    43    21    23 1   
    44    21    50 1   
    45    22    51 1   
    46    23    24 1   
    47    23    52 1   
    48    24    25 1   
    49    24    53 1   
    50    24    54 1   
    51    30    31 1   
    52    30    34 2   
    53    31    32 ar  
    54    31    38 ar  
    55    32    33 1   
    56    32    35 ar  
    57    33    34 1   
    58    33    55 1   
    59    34    56 1   
    60    35    36 ar  
    61    35    57 1   
    62    36    37 ar  
    63    36    58 1   
    64    37    38 ar  
    65    37    59 1   
    66    38    60 1   
@<TRIPOS>SUBSTRUCTURE
     1 67D         1 TEMP              0 ****  ****    0 ROOT
