@<TRIPOS>MOLECULE
67D
   61    66     1     0     0
SMALL
bcc


@<TRIPOS>ATOM
      1 S           -2.8680     3.4610     0.5000 s6         1 67D       1.578100
      2 N           -2.7480     1.8880    -0.0300 ns         1 67D      -0.699300
      3 C7           4.5510    -3.4180     0.9230 cc         1 67D      -0.210100
      4 C6           2.7980    -2.3450     0.0850 cc         1 67D       0.045700
      5 C5           2.1360    -1.1410    -0.2500 cc         1 67D       0.001100
      6 C4           2.8140     0.0340     0.0180 cd         1 67D       0.379800
      7 C3           3.5860    -4.2750     0.4920 cd         1 67D       0.016600
      8 C2           4.6150    -0.9340     0.8870 cc         1 67D       0.546400
      9 C8           0.8700     0.4220    -0.8870 cd         1 67D       0.392700
     10 C9          -2.3070     0.8400     0.7660 c          1 67D       0.688100
     11 C11         -2.6780    -1.6040     1.2820 c3         1 67D       0.014800
     12 C10         -2.6190    -0.5210     0.2030 c3         1 67D      -0.162400
     13 N1           4.0530    -2.1590     0.6630 na         1 67D      -0.171100
     14 N3           4.0300     0.1710     0.5760 nd         1 67D      -0.661000
     15 N7           0.9220    -0.8790    -0.8100 nc         1 67D      -0.528100
     16 N9           1.9850     1.0360    -0.4070 na         1 67D      -0.220000
     17 C1           2.2420     2.4510    -0.3440 c5         1 67D       0.255800
     18 O4           1.2770     3.0650     0.4670 os         1 67D      -0.372600
     19 C15          2.1550     3.1480    -1.7020 c5         1 67D       0.058100
     20 O2           3.3720     3.0300    -2.3700 oh         1 67D      -0.570800
     21 C14          1.7820     4.5720    -1.2820 c5         1 67D       0.086100
     22 O3           2.9040     5.2610    -0.8010 oh         1 67D      -0.575800
     23 C13          0.8480     4.2980    -0.1070 c5         1 67D       0.141100
     24 C12         -0.5970     4.1970    -0.5450 c3         1 67D       0.165400
     25 O5          -1.3600     3.9210     0.6430 os         1 67D      -0.519500
     26 O2P         -3.5100     4.1670    -0.5800 o          1 67D      -0.610800
     27 O3P         -3.3870     3.5040     1.8380 o          1 67D      -0.610800
     28 N2           2.5070    -3.6120    -0.0250 nd         1 67D      -0.264600
     29 O13         -1.7260     1.0410     1.8030 o          1 67D      -0.514100
     30 C19         -3.1440    -2.9090     0.7260 cc         1 67D      -0.148400
     31 C20         -2.3670    -3.8750     0.0070 ca         1 67D      -0.098800
     32 C21         -3.2400    -4.9250    -0.3550 ca         1 67D      -0.050200
     33 N22         -4.4790    -4.6050     0.1180 na         1 67D      -0.176400
     34 C23         -4.4180    -3.4010     0.7640 cd         1 67D      -0.113100
     35 C36         -2.8030    -6.0450    -1.0610 ca         1 67D      -0.158000
     36 C37         -1.4640    -6.1030    -1.3980 ca         1 67D      -0.110000
     37 C38         -0.5770    -5.0720    -1.0430 ca         1 67D      -0.155000
     38 C39         -1.0160    -3.9610    -0.3500 ca         1 67D      -0.066000
     39 H1          -3.2610     1.6870    -0.8820 hn         1 67D       0.341500
     40 H3           3.6150    -5.3530     0.5290 h4         1 67D       0.180000
     41 H4           5.5950    -0.9300     1.3450 h5         1 67D       0.058100
     42 H5           0.0380     0.9770    -1.2930 h5         1 67D       0.059800
     43 H6          -1.6940    -1.7160     1.7430 hc         1 67D       0.059700
     44 H7          -3.3570    -1.2850     2.0750 hc         1 67D       0.059700
     45 H8          -3.5650    -0.4860    -0.3420 hc         1 67D       0.072700
     46 H9          -1.8500    -0.7700    -0.5360 hc         1 67D       0.072700
     47 H10          3.2470     2.5640     0.0750 h2         1 67D       0.125700
     48 H11          1.3310     2.7220    -2.2880 h1         1 67D       0.050700
     49 H12          3.2300     3.1800    -3.3100 ho         1 67D       0.421000
     50 H13          1.2800     5.1200    -2.0900 h1         1 67D       0.058700
     51 H14          3.6310     5.1120    -1.4170 ho         1 67D       0.427000
     52 H15          0.9370     5.0880     0.6440 h1         1 67D       0.119700
     53 H16         -0.9210     5.1450    -0.9770 h1         1 67D       0.052200
     54 H17         -0.7410     3.4060    -1.2870 h1         1 67D       0.052200
     55 H18         -5.3090    -5.1630     0.0160 hn         1 67D       0.296700
     56 H19         -5.3020    -2.9750     1.2130 h4         1 67D       0.158000
     57 H20         -3.4850    -6.8410    -1.3330 ha         1 67D       0.126000
     58 H21         -1.0910    -6.9610    -1.9420 ha         1 67D       0.123000
     59 H22          0.4690    -5.1450    -1.3080 ha         1 67D       0.143000
     60 H23         -0.3190    -3.1720    -0.0990 ha         1 67D       0.156000
     61 H2           5.5150    -3.5740     1.3770 h4         1 67D       0.183000
@<TRIPOS>BOND
     1     1     2 1   
     2     1    25 1   
     3     1    26 2   
     4     1    27 2   
     5     2    10 1   
     6     2    39 1   
     7     3     7 2   
     8     3    13 1   
     9     3    61 1   
    10     4     5 1   
    11     4    13 1   
    12     4    28 2   
    13     5     6 2   
    14     5    15 1   
    15     6    14 1   
    16     6    16 1   
    17     7    28 1   
    18     7    40 1   
    19     8    13 1   
    20     8    14 2   
    21     8    41 1   
    22     9    15 2   
    23     9    16 1   
    24     9    42 1   
    25    10    12 1   
    26    10    29 2   
    27    11    12 1   
    28    11    30 1   
    29    11    43 1   
    30    11    44 1   
    31    12    45 1   
    32    12    46 1   
    33    16    17 1   
    34    17    18 1   
    35    17    19 1   
    36    17    47 1   
    37    18    23 1   
    38    19    20 1   
    39    19    21 1   
    40    19    48 1   
    41    20    49 1   
    42    21    22 1   
    43    21    23 1   
    44    21    50 1   
    45    22    51 1   
    46    23    24 1   
    47    23    52 1   
    48    24    25 1   
    49    24    53 1   
    50    24    54 1   
    51    30    31 1   
    52    30    34 2   
    53    31    32 ar  
    54    31    38 ar  
    55    32    33 1   
    56    32    35 ar  
    57    33    34 1   
    58    33    55 1   
    59    34    56 1   
    60    35    36 ar  
    61    35    57 1   
    62    36    37 ar  
    63    36    58 1   
    64    37    38 ar  
    65    37    59 1   
    66    38    60 1   
@<TRIPOS>SUBSTRUCTURE
     1 67D         1 TEMP              0 ****  ****    0 ROOT
