@<TRIPOS>MOLECULE
67F
   80    82     1     0     0
SMALL
bcc


@<TRIPOS>ATOM
      1 O42          3.4080     1.7110    -2.7050 o          1 67F      -0.629100
      2 C41          4.0570     0.6930    -2.9100 c          1 67F       0.681100
      3 C43          3.6980    -0.2680    -4.0140 c3         1 67F      -0.177100
      4 N40          5.1300     0.3480    -2.1740 ns         1 67F      -0.555900
      5 C31          5.6000     1.1020    -1.0410 c6         1 67F       0.066700
      6 C32          7.1210     1.0760    -0.9640 c6         1 67F       0.140100
      7 O39          7.6340     1.6720    -2.1250 oh         1 67F      -0.586800
      8 C33          7.5960     1.7910     0.2980 c6         1 67F       0.072100
      9 O38          8.9940     1.6190     0.3640 oh         1 67F      -0.602800
     10 C34          6.8920     1.2150     1.5330 c6         1 67F       0.130100
     11 C36          7.2490     1.9800     2.7890 c3         1 67F       0.149400
     12 O37          6.6540     1.3480     3.8960 oh         1 67F      -0.565800
     13 O35          5.4920     1.2960     1.3600 os         1 67F      -0.397600
     14 C30          5.0300     0.5380     0.2690 c6         1 67F       0.296500
     15 N29          3.6100     0.5730     0.2540 ns         1 67F      -0.533900
     16 C27          2.8010    -0.4560     0.5970 cs         1 67F       0.614400
     17 S28          3.3710    -1.9110     1.2180 s          1 67F      -0.663400
     18 N26          1.5000    -0.2350     0.4060 ns         1 67F      -0.498900
     19 C25          0.4550    -1.2010     0.6810 c3         1 67F       0.082000
     20 C24         -0.8550    -0.6360     0.1460 c3         1 67F       0.234800
     21 N16         -1.9990    -1.5100     0.3110 n3         1 67F      -0.752500
     22 C17         -2.3330    -2.6150    -0.5920 c3         1 67F       0.100500
     23 C21         -2.1420    -2.3090    -2.0910 c3         1 67F      -0.056700
     24 C23         -2.8500    -1.0240    -2.5110 c3         1 67F      -0.079100
     25 C22         -0.7100    -2.4030    -2.6240 c3         1 67F      -0.079100
     26 C18         -1.6900    -3.9680    -0.1900 c          1 67F       0.929600
     27 O20         -2.0900    -4.9440    -0.8570 o          1 67F      -0.812800
     28 O19         -0.8620    -3.9780     0.7340 o          1 67F      -0.812800
     29 S13         -2.9120    -1.3570     1.6610 sy         1 67F       1.333200
     30 O14         -3.4170    -2.6600     2.0630 o          1 67F      -0.611300
     31 O15         -2.1670    -0.5530     2.6210 o          1 67F      -0.611300
     32 C10         -4.3150    -0.4010     1.1440 ca         1 67F      -0.268500
     33 C09         -4.1930     0.9790     1.0320 ca         1 67F      -0.032500
     34 C08         -5.2680     1.7230     0.5830 ca         1 67F      -0.146000
     35 C11         -5.5070    -1.0310     0.8170 ca         1 67F      -0.032500
     36 C12         -6.5770    -0.2740     0.3680 ca         1 67F      -0.146000
     37 C07         -6.4780     1.1120     0.2430 cp         1 67F      -0.007000
     38 C01         -7.6250     1.9140    -0.2250 cp         1 67F      -0.029000
     39 C06         -8.4960     1.4170    -1.1960 ca         1 67F      -0.116000
     40 C05         -9.5770     2.1690    -1.6320 ca         1 67F      -0.133500
     41 C04         -9.8070     3.4320    -1.1040 ca         1 67F      -0.132000
     42 C03         -8.9470     3.9380    -0.1380 ca         1 67F      -0.133500
     43 C02         -7.8650     3.1870     0.2970 ca         1 67F      -0.116000
     44 H1           3.6380     0.2700    -4.9600 hc         1 67F       0.064367
     45 H2           4.4020    -1.0890    -4.1220 hc         1 67F       0.064367
     46 H3           2.7100    -0.6850    -3.8160 hc         1 67F       0.064367
     47 H4           5.5920    -0.5240    -2.3820 hn         1 67F       0.321500
     48 H5           5.2700     2.1390    -1.1560 h1         1 67F       0.095700
     49 H6           7.4440     0.0220    -0.8890 h1         1 67F       0.047700
     50 H7           8.5950     1.6510    -2.0660 ho         1 67F       0.415000
     51 H8           7.3310     2.8540     0.2080 h1         1 67F       0.052700
     52 H9           9.3890     2.3910     0.7780 ho         1 67F       0.409000
     53 H10          7.1990     0.1630     1.6530 h1         1 67F       0.072700
     54 H11          8.3410     2.0040     2.8810 h1         1 67F       0.017200
     55 H12          6.9110     3.0200     2.6780 h1         1 67F       0.017200
     56 H13          6.8950     1.8430     4.6840 ho         1 67F       0.399000
     57 H14          5.3360    -0.5090     0.3780 h2         1 67F       0.100700
     58 H15          3.1850     1.3950    -0.1540 hn         1 67F       0.315500
     59 H16          1.2120     0.6700     0.0640 hn         1 67F       0.296500
     60 H17          0.6900    -2.1490     0.2040 h1         1 67F       0.110200
     61 H18          0.3740    -1.3900     1.7520 h1         1 67F       0.110200
     62 H19         -1.0600     0.3240     0.6230 h1         1 67F       0.035200
     63 H20         -0.7500    -0.4090    -0.9120 h1         1 67F       0.035200
     64 H21         -3.4150    -2.7640    -0.5030 h1         1 67F       0.036700
     65 H22         -2.6800    -3.1280    -2.5730 hc         1 67F       0.068700
     66 H23         -2.4080    -0.1260    -2.0810 hc         1 67F       0.022033
     67 H24         -2.8190    -0.9120    -3.5970 hc         1 67F       0.022033
     68 H25         -3.9000    -1.0430    -2.2120 hc         1 67F       0.022033
     69 H26         -0.2600    -3.3640    -2.3750 hc         1 67F       0.022033
     70 H27         -0.7200    -2.3250    -3.7130 hc         1 67F       0.022033
     71 H28         -0.0420    -1.6240    -2.2590 hc         1 67F       0.022033
     72 H30         -3.2720     1.4830     1.2940 ha         1 67F       0.154500
     73 H31         -5.1570     2.7950     0.4840 ha         1 67F       0.126500
     74 H32         -5.6180    -2.1010     0.9240 ha         1 67F       0.154500
     75 H33         -7.5090    -0.7740     0.1380 ha         1 67F       0.126500
     76 H34         -8.3190     0.4410    -1.6320 ha         1 67F       0.135500
     77 H35        -10.2360     1.7680    -2.3910 ha         1 67F       0.126000
     78 H36        -10.6490     4.0200    -1.4450 ha         1 67F       0.124000
     79 H37         -9.1210     4.9200     0.2830 ha         1 67F       0.126000
     80 H38         -7.2170     3.5900     1.0650 ha         1 67F       0.135500
@<TRIPOS>BOND
     1     1     2 2   
     2     2     3 1   
     3     2     4 1   
     4     3    44 1   
     5     3    45 1   
     6     3    46 1   
     7     4     5 1   
     8     4    47 1   
     9     5     6 1   
    10     5    14 1   
    11     5    48 1   
    12     6     7 1   
    13     6     8 1   
    14     6    49 1   
    15     7    50 1   
    16     8     9 1   
    17     8    10 1   
    18     8    51 1   
    19     9    52 1   
    20    10    11 1   
    21    10    13 1   
    22    10    53 1   
    23    11    12 1   
    24    11    54 1   
    25    11    55 1   
    26    12    56 1   
    27    13    14 1   
    28    14    15 1   
    29    14    57 1   
    30    15    16 1   
    31    15    58 1   
    32    16    17 2   
    33    16    18 1   
    34    18    19 1   
    35    18    59 1   
    36    19    20 1   
    37    19    60 1   
    38    19    61 1   
    39    20    21 1   
    40    20    62 1   
    41    20    63 1   
    42    21    22 1   
    43    21    29 1   
    44    22    23 1   
    45    22    26 1   
    46    22    64 1   
    47    23    24 1   
    48    23    25 1   
    49    23    65 1   
    50    24    66 1   
    51    24    67 1   
    52    24    68 1   
    53    25    69 1   
    54    25    70 1   
    55    25    71 1   
    56    26    27 1   
    57    26    28 1   
    58    29    30 2   
    59    29    31 2   
    60    29    32 1   
    61    32    33 ar  
    62    32    35 ar  
    63    33    34 ar  
    64    33    72 1   
    65    34    37 ar  
    66    34    73 1   
    67    35    36 ar  
    68    35    74 1   
    69    36    37 ar  
    70    36    75 1   
    71    37    38 1   
    72    38    39 ar  
    73    38    43 ar  
    74    39    40 ar  
    75    39    76 1   
    76    40    41 ar  
    77    40    77 1   
    78    41    42 ar  
    79    41    78 1   
    80    42    43 ar  
    81    42    79 1   
    82    43    80 1   
@<TRIPOS>SUBSTRUCTURE
     1 67F         1 TEMP              0 ****  ****    0 ROOT
