@<TRIPOS>MOLECULE
67F
   80    82     1     0     0
SMALL
No Charge or Current Charge


@<TRIPOS>ATOM
      1 O42          0.2240     3.0710     0.6050 o          1 67F      -0.629100
      2 C41          0.5680     3.4840    -0.4930 c          1 67F       0.614100
      3 C43         -0.3990     4.1520    -1.4600 c3         1 67F      -0.177100
      4 N40          1.8650     3.3830    -0.9400 ns         1 67F      -0.488900
      5 C31          3.0120     2.8660    -0.1490 c6         1 67F       0.066700
      6 C32          4.3660     3.4050    -0.6930 c6         1 67F       0.163300
      7 O39          4.3800     4.8400    -0.7370 oh         1 67F      -0.649000
      8 C33          5.5500     2.8960     0.1820 c6         1 67F       0.095300
      9 O38          6.8000     3.3820    -0.3600 oh         1 67F      -0.725000
     10 C34          5.5010     1.3350     0.2550 c6         1 67F       0.153300
     11 C36          6.5830     0.7460     1.2250 c3         1 67F       0.172600
     12 O37          6.5320    -0.6880     1.3400 oh         1 67F      -0.688000
     13 O35          4.1920     0.9090     0.7180 os         1 67F      -0.444000
     14 C30          3.0980     1.3060    -0.1360 c6         1 67F       0.319700
     15 N29          1.8890     0.7160     0.4200 ns         1 67F      -0.466900
     16 C27          1.5160    -0.5880     0.3590 cs         1 67F       0.480400
     17 S28          2.3390    -1.7660    -0.4910 s          1 67F      -0.663400
     18 N26          0.3550    -0.8030     1.0390 ns         1 67F      -0.431900
     19 C25         -0.3650    -2.0820     1.1570 c3         1 67F       0.082000
     20 C24         -1.2060    -2.4210    -0.1000 c3         1 67F       0.234800
     21 N16         -2.3620    -3.3470     0.0780 n3         1 67F      -0.752500
     22 C17         -2.0980    -4.8160     0.3580 c3         1 67F       0.100500
     23 C21         -1.2110    -5.5810    -0.6890 c3         1 67F      -0.056700
     24 C23         -1.6100    -5.2740    -2.1540 c3         1 67F      -0.079100
     25 C22          0.3240    -5.5030    -0.4780 c3         1 67F      -0.079100
     26 C18         -1.7970    -5.2820     1.8440 c          1 67F       0.719000
     27 O20         -2.5450    -6.1140     2.3440 o          1 67F      -0.707500
     28 O19         -0.8670    -4.7810     2.4650 o          1 67F      -0.707500
     29 S13         -3.7400    -2.7060     0.8740 sy         1 67F       1.191600
     30 O14         -4.8890    -3.4600     0.3590 o          1 67F      -0.540500
     31 O15         -3.4330    -2.6300     2.3060 o          1 67F      -0.540500
     32 C10         -3.8590    -1.0410     0.1880 ca         1 67F      -0.268500
     33 C09         -3.3990     0.0720     0.9200 ca         1 67F      -0.014500
     34 C08         -3.4380     1.3540     0.3460 ca         1 67F      -0.128000
     35 C11         -4.3670    -0.8580    -1.1120 ca         1 67F      -0.014500
     36 C12         -4.4070     0.4270    -1.6770 ca         1 67F      -0.128000
     37 C07         -3.9380     1.5590    -0.9650 cp         1 67F      -0.007000
     38 C01         -3.9560     2.9230    -1.5830 cp         1 67F      -0.029000
     39 C06         -3.7180     3.0990    -2.9710 ca         1 67F      -0.098000
     40 C05         -3.7190     4.3780    -3.5530 ca         1 67F      -0.115500
     41 C04         -3.9580     5.5100    -2.7580 ca         1 67F      -0.114000
     42 C03         -4.1990     5.3620    -1.3820 ca         1 67F      -0.115500
     43 C02         -4.1980     4.0820    -0.8010 ca         1 67F      -0.098000
     44 H1           0.0550     5.0640    -1.8650 hc         1 67F       0.064367
     45 H2          -0.5000     3.5180    -2.3490 hc         1 67F       0.064367
     46 H3          -1.3750     4.3460    -1.0030 hc         1 67F       0.064367
     47 H4           2.0580     3.7880    -1.8490 hn         1 67F       0.321500
     48 H5           2.8930     3.2130     0.8880 h1         1 67F       0.095700
     49 H6           4.5050     3.0110    -1.7120 h1         1 67F       0.047700
     50 H7           5.3340     5.0720    -0.8200 ho         1 67F       0.454000
     51 H8           5.4100     3.2870     1.2030 h1         1 67F       0.052700
     52 H9           7.4590     3.4060     0.3750 ho         1 67F       0.508000
     53 H10          5.6770     0.9160    -0.7470 h1         1 67F       0.072700
     54 H11          7.5750     1.0490     0.8650 h1         1 67F       0.017200
     55 H12          6.4410     1.2030     2.2140 h1         1 67F       0.017200
     56 H13          7.1870    -0.9430     2.0310 ho         1 67F       0.498000
     57 H14          3.2520     0.9240    -1.1590 h2         1 67F       0.100700
     58 H15          1.2510     1.3600     0.8750 hn         1 67F       0.315500
     59 H16         -0.0520    -0.0000     1.5050 hn         1 67F       0.296500
     60 H17          0.3560    -2.8880     1.3350 h1         1 67F       0.110200
     61 H18         -1.0150    -2.0230     2.0370 h1         1 67F       0.110200
     62 H19         -1.5540    -1.4740    -0.5280 h1         1 67F       0.035200
     63 H20         -0.5280    -2.8110    -0.8650 h1         1 67F       0.035200
     64 H21         -3.0760    -5.2830     0.1780 h1         1 67F       0.036700
     65 H22         -1.4570    -6.6400    -0.5410 hc         1 67F       0.068700
     66 H23         -1.3380    -4.2520    -2.4410 hc         1 67F       0.022033
     67 H24         -1.1070    -5.9630    -2.8430 hc         1 67F       0.022033
     68 H25         -2.6920    -5.3920    -2.2930 hc         1 67F       0.022033
     69 H26          0.6070    -5.8760     0.5120 hc         1 67F       0.022033
     70 H27          0.8380    -6.1290    -1.2170 hc         1 67F       0.022033
     71 H28          0.7120    -4.4870    -0.5850 hc         1 67F       0.022033
     72 H30         -2.9950    -0.0510     1.9240 ha         1 67F       0.136500
     73 H31         -3.0540     2.1940     0.9180 ha         1 67F       0.108500
     74 H32         -4.7200    -1.7090    -1.6930 ha         1 67F       0.136500
     75 H33         -4.8100     0.5450    -2.6800 ha         1 67F       0.108500
     76 H34         -3.5150     2.2360    -3.6020 ha         1 67F       0.117500
     77 H35         -3.5300     4.4910    -4.6190 ha         1 67F       0.108000
     78 H36         -3.9570     6.5010    -3.2070 ha         1 67F       0.106000
     79 H37         -4.3860     6.2390    -0.7640 ha         1 67F       0.108000
     80 H38         -4.3940     3.9870     0.2650 ha         1 67F       0.117500
@<TRIPOS>BOND
     1     1     2 2   
     2     2     3 1   
     3     2     4 1   
     4     3    44 1   
     5     3    45 1   
     6     3    46 1   
     7     4     5 1   
     8     4    47 1   
     9     5     6 1   
    10     5    14 1   
    11     5    48 1   
    12     6     7 1   
    13     6     8 1   
    14     6    49 1   
    15     7    50 1   
    16     8     9 1   
    17     8    10 1   
    18     8    51 1   
    19     9    52 1   
    20    10    11 1   
    21    10    13 1   
    22    10    53 1   
    23    11    12 1   
    24    11    54 1   
    25    11    55 1   
    26    12    56 1   
    27    13    14 1   
    28    14    15 1   
    29    14    57 1   
    30    15    16 1   
    31    15    58 1   
    32    16    17 2   
    33    16    18 1   
    34    18    19 1   
    35    18    59 1   
    36    19    20 1   
    37    19    60 1   
    38    19    61 1   
    39    20    21 1   
    40    20    62 1   
    41    20    63 1   
    42    21    22 1   
    43    21    29 1   
    44    22    23 1   
    45    22    26 1   
    46    22    64 1   
    47    23    24 1   
    48    23    25 1   
    49    23    65 1   
    50    24    66 1   
    51    24    67 1   
    52    24    68 1   
    53    25    69 1   
    54    25    70 1   
    55    25    71 1   
    56    26    27 1   
    57    26    28 1   
    58    29    30 2   
    59    29    31 2   
    60    29    32 1   
    61    32    33 ar  
    62    32    35 ar  
    63    33    34 ar  
    64    33    72 1   
    65    34    37 ar  
    66    34    73 1   
    67    35    36 ar  
    68    35    74 1   
    69    36    37 ar  
    70    36    75 1   
    71    37    38 1   
    72    38    39 ar  
    73    38    43 ar  
    74    39    40 ar  
    75    39    76 1   
    76    40    41 ar  
    77    40    77 1   
    78    41    42 ar  
    79    41    78 1   
    80    42    43 ar  
    81    42    79 1   
    82    43    80 1   
@<TRIPOS>SUBSTRUCTURE
     1 67F         1 TEMP              0 ****  ****    0 ROOT
