@<TRIPOS>MOLECULE
67G
   38    41     1     0     0
SMALL
bcc


@<TRIPOS>ATOM
      1 C4           0.4350    -0.0050     0.1350 cc         1 67G       0.170600
      2 C6           1.0970     2.3140     0.3380 c          1 67G       0.617500
      3 C11          3.6860    -1.7580    -1.0870 c3         1 67G       0.765200
      4 C8           2.6770     0.4480    -0.2710 cc         1 67G       0.099400
      5 C9           2.6070    -0.8580    -0.5890 cd         1 67G      -0.249400
      6 N3          -0.7910     0.1810     0.4860 nd         1 67G      -0.325600
      7 C1          -0.2570     2.4900     0.7640 cc         1 67G      -0.322200
      8 C2          -1.1250     1.4450     0.8270 cd         1 67G       0.180400
      9 N5           1.4220     0.9440     0.1010 n          1 67G      -0.125200
     10 O7           1.9160     3.1880     0.1600 o          1 67G      -0.573500
     11 S10          1.0220    -1.5370    -0.3890 ss         1 67G       0.040200
     12 F12          3.1440    -2.7460    -1.8070 f          1 67G      -0.220967
     13 F13          4.5610    -1.1200    -1.8600 f          1 67G      -0.220967
     14 F14          4.3690    -2.3350    -0.0930 f          1 67G      -0.220967
     15 C15          3.8880     1.2980    -0.2640 cx         1 67G      -0.059400
     16 C16          4.4070     1.9000     0.9910 cx         1 67G      -0.067400
     17 C17          5.1620     0.7660     0.3580 cx         1 67G      -0.072600
     18 C18          6.3980     1.0150    -0.3210 c1         1 67G       0.236700
     19 N19          7.3930     1.2130    -0.8640 n1         1 67G      -0.345800
     20 C20         -2.5390     1.6360     1.3000 c3         1 67G       0.099500
     21 N21         -3.4630     0.8230     0.5480 na         1 67G       0.133400
     22 C22         -3.8460     0.9960    -0.7350 cc         1 67G      -0.007900
     23 C23         -4.6540    -0.0540    -1.0800 cd         1 67G      -0.235300
     24 C24         -4.6820    -0.8210     0.0930 cd         1 67G       0.201600
     25 N25         -3.9620    -0.2910     1.0580 nc         1 67G      -0.439800
     26 C26         -5.4180    -2.0950     0.3030 c3         1 67G       0.658600
     27 F27         -5.0490    -3.0210    -0.5920 f          1 67G      -0.226633
     28 F28         -5.2060    -2.5980     1.5180 f          1 67G      -0.226633
     29 F29         -6.7390    -1.9290     0.1570 f          1 67G      -0.226633
     30 CL3         -3.3350     2.3300    -1.6450 cl         1 67G      -0.026400
     31 H2          -0.5750     3.4960     0.9970 ha         1 67G       0.172000
     32 H3           4.0190     1.8970    -1.1580 hc         1 67G       0.129700
     33 H4           4.8140     2.8990     0.9230 hc         1 67G       0.094200
     34 H5           3.9180     1.6630     1.9260 hc         1 67G       0.094200
     35 H6           5.1390    -0.1770     0.8890 hc         1 67G       0.116700
     36 H7          -2.6220     1.3270     2.3420 h1         1 67G       0.096700
     37 H8          -2.8330     2.6830     1.2440 h1         1 67G       0.096700
     38 H9          -5.1420    -0.2310    -2.0240 ha         1 67G       0.189000
@<TRIPOS>BOND
     1     1     6 2   
     2     1     9 1   
     3     1    11 1   
     4     2     7 1   
     5     2     9 1   
     6     2    10 2   
     7     3     5 1   
     8     3    12 1   
     9     3    13 1   
    10     3    14 1   
    11     4     5 2   
    12     4     9 1   
    13     4    15 1   
    14     5    11 1   
    15     6     8 1   
    16     7     8 2   
    17     7    31 1   
    18     8    20 1   
    19    15    16 1   
    20    15    17 1   
    21    15    32 1   
    22    16    17 1   
    23    16    33 1   
    24    16    34 1   
    25    17    18 1   
    26    17    35 1   
    27    18    19 3   
    28    20    21 1   
    29    20    36 1   
    30    20    37 1   
    31    21    22 1   
    32    21    25 1   
    33    22    23 2   
    34    22    30 1   
    35    23    24 1   
    36    23    38 1   
    37    24    25 2   
    38    24    26 1   
    39    26    27 1   
    40    26    28 1   
    41    26    29 1   
@<TRIPOS>SUBSTRUCTURE
     1 67G         1 TEMP              0 ****  ****    0 ROOT
