@<TRIPOS>MOLECULE
67H
   45    47     1     0     0
SMALL
abcg2


@<TRIPOS>ATOM
      1 C4           1.9300     0.9970     1.7230 c3         1 67H       0.279000
      2 C5           0.5770     0.5410     1.2220 cc         1 67H       0.176400
      3 C6          -0.1960    -0.3020     1.9710 cd         1 67H      -0.387200
      4 C11         -3.1340     0.2710    -1.5470 cc         1 67H      -0.192300
      5 C7          -1.4860    -0.7150     1.5320 c          1 67H       0.538000
      6 C10         -3.0780    -0.3110    -0.3390 cd         1 67H      -0.145600
      7 C13         -0.9890     0.6820    -0.3740 cd         1 67H      -0.014000
      8 N3           2.8520     1.3620     0.6900 nh         1 67H      -0.820400
      9 C1           4.1700     3.4460     1.0010 c3         1 67H      -0.115100
     10 C2           2.9690     2.7690     0.3550 c3         1 67H       0.234800
     11 O8          -2.2390    -1.5120     2.0620 o          1 67H      -0.515000
     12 N9          -1.8660    -0.0960     0.3180 n          1 67H       0.001200
     13 S12         -1.6600     1.1350    -1.8990 ss         1 67H       0.219000
     14 N14          0.1920     1.0260     0.0230 nc         1 67H      -0.330600
     15 C15         -4.2530     0.3010    -2.5260 c3         1 67H      -0.025800
     16 C16         -4.2540    -0.9300     0.3640 c          1 67H       0.648700
     17 O17         -4.8430    -0.3190     1.2390 o          1 67H      -0.562100
     18 N18         -4.6290    -2.1120    -0.1230 ns         1 67H      -0.489900
     19 C19         -5.7650    -2.8360     0.4000 c3         1 67H       0.094300
     20 C20          3.4720     0.3900    -0.0580 ca         1 67H       0.339000
     21 C21          4.4200     0.7120    -1.0460 ca         1 67H      -0.168000
     22 C22          5.0480    -0.2690    -1.7960 ca         1 67H      -0.104500
     23 C23          4.7470    -1.5960    -1.5710 ca         1 67H       0.109000
     24 C24          3.8260    -1.9580    -0.6100 ca         1 67H      -0.104500
     25 C25          3.1930    -0.9750     0.1360 ca         1 67H      -0.168000
     26 F26          5.3610    -2.5530    -2.2990 f          1 67H      -0.187000
     27 H1           1.7700     1.8660     2.3660 h1         1 67H       0.066700
     28 H2           2.3520     0.2300     2.3790 h1         1 67H       0.066700
     29 H3           0.1680    -0.7070     2.9050 ha         1 67H       0.217000
     30 H5           4.1240     3.3630     2.0880 hc         1 67H       0.040700
     31 H6           5.1110     3.0040     0.6720 hc         1 67H       0.040700
     32 H7           4.1920     4.5060     0.7460 hc         1 67H       0.040700
     33 H8           2.9960     2.8910    -0.7300 h1         1 67H       0.050700
     34 H9           2.0540     3.2660     0.6780 h1         1 67H       0.050700
     35 H10         -4.5640     1.3250    -2.7290 hc         1 67H       0.059033
     36 H11         -3.9490    -0.1490    -3.4720 hc         1 67H       0.059033
     37 H12         -5.1140    -0.2490    -2.1540 hc         1 67H       0.059033
     38 H13         -4.0360    -2.5700    -0.7960 hn         1 67H       0.322500
     39 H14         -6.6590    -2.2150     0.3980 h1         1 67H       0.045033
     40 H15         -5.9440    -3.6980    -0.2360 h1         1 67H       0.045033
     41 H16         -5.5870    -3.1860     1.4170 h1         1 67H       0.045033
     42 H17          4.6940     1.7400    -1.2350 ha         1 67H       0.115000
     43 H18          5.7750     0.0100    -2.5480 ha         1 67H       0.125000
     44 H19          3.5880    -3.0000    -0.4390 ha         1 67H       0.125000
     45 H20          2.4670    -1.2980     0.8680 ha         1 67H       0.115000
@<TRIPOS>BOND
     1     1     2 1   
     2     1     8 1   
     3     1    27 1   
     4     1    28 1   
     5     2     3 2   
     6     2    14 1   
     7     3     5 1   
     8     3    29 1   
     9     4     6 2   
    10     4    13 1   
    11     4    15 1   
    12     5    11 2   
    13     5    12 1   
    14     6    12 1   
    15     6    16 1   
    16     7    12 1   
    17     7    13 1   
    18     7    14 2   
    19     8    10 1   
    20     8    20 1   
    21     9    10 1   
    22     9    30 1   
    23     9    31 1   
    24     9    32 1   
    25    10    33 1   
    26    10    34 1   
    27    15    35 1   
    28    15    36 1   
    29    15    37 1   
    30    16    17 2   
    31    16    18 1   
    32    18    19 1   
    33    18    38 1   
    34    19    39 1   
    35    19    40 1   
    36    19    41 1   
    37    20    21 ar  
    38    20    25 ar  
    39    21    22 ar  
    40    21    42 1   
    41    22    23 ar  
    42    22    43 1   
    43    23    24 ar  
    44    23    26 1   
    45    24    25 ar  
    46    24    44 1   
    47    25    45 1   
@<TRIPOS>SUBSTRUCTURE
     1 67H         1 TEMP              0 ****  ****    0 ROOT
