@<TRIPOS>MOLECULE
67H
   45    47     1     0     0
SMALL
No Charge or Current Charge


@<TRIPOS>ATOM
      1 C4           1.9720     1.5390     0.8060 c3         1 67H       0.279000
      2 C5           0.5970     0.9400     0.5390 cc         1 67H       0.176400
      3 C6           0.3920    -0.2680    -0.1080 cd         1 67H      -0.387200
      4 C11         -4.1440     0.7920     0.5710 cc         1 67H      -0.192300
      5 C7          -0.9300    -0.8460    -0.3730 c          1 67H       0.538000
      6 C10         -3.3660    -0.3010     0.1670 cd         1 67H      -0.145600
      7 C13         -1.6910     1.1660     0.7290 cd         1 67H      -0.014000
      8 N3           3.0680     1.1350    -0.1260 nh         1 67H      -0.820400
      9 C1           3.5360     3.1300    -1.6020 c3         1 67H      -0.115100
     10 C2           3.0090     1.6880    -1.4990 c3         1 67H       0.234800
     11 O8          -1.0590    -1.8670    -1.0320 o          1 67H      -0.515000
     12 N9          -1.9740    -0.0680     0.1750 n          1 67H       0.001200
     13 S12         -3.1160     2.1270     1.0610 ss         1 67H       0.219000
     14 N14         -0.4910     1.6980     0.9420 nc         1 67H      -0.330600
     15 C15         -5.6330     0.9490     0.8030 c3         1 67H      -0.025800
     16 C16         -4.0040    -1.6370    -0.1450 c          1 67H       0.648700
     17 O17         -3.4430    -2.7170    -0.0320 o          1 67H      -0.562100
     18 N18         -5.3080    -1.5790    -0.5810 ns         1 67H      -0.489900
     19 C19         -6.1240    -2.7470    -0.9260 c3         1 67H       0.094300
     20 C20          4.0510     0.1830     0.2500 ca         1 67H       0.339000
     21 C21          5.3520     0.2420    -0.2940 ca         1 67H      -0.168000
     22 C22          6.3310    -0.7000     0.0740 ca         1 67H      -0.104500
     23 C23          6.0160    -1.7120     0.9920 ca         1 67H       0.109000
     24 C24          4.7280    -1.7880     1.5410 ca         1 67H      -0.104500
     25 C25          3.7510    -0.8450     1.1710 ca         1 67H      -0.168000
     26 F26          6.9550    -2.6150     1.3480 f          1 67H      -0.187000
     27 H1           1.8750     2.6330     0.7850 h1         1 67H       0.066700
     28 H2           2.2500     1.2980     1.8410 h1         1 67H       0.066700
     29 H3           1.2220    -0.8530    -0.4830 ha         1 67H       0.217000
     30 H5           2.9250     3.8130    -1.0000 hc         1 67H       0.040700
     31 H6           4.5730     3.1940    -1.2530 hc         1 67H       0.040700
     32 H7           3.5020     3.4710    -2.6430 hc         1 67H       0.040700
     33 H8           3.5820     1.0500    -2.1860 h1         1 67H       0.050700
     34 H9           1.9720     1.6680    -1.8600 h1         1 67H       0.050700
     35 H10         -5.8470     1.8570     1.3800 hc         1 67H       0.059033
     36 H11         -6.1800     1.0370    -0.1430 hc         1 67H       0.059033
     37 H12         -6.0430     0.1080     1.3760 hc         1 67H       0.059033
     38 H13         -5.7010    -0.6560    -0.7030 hn         1 67H       0.322500
     39 H14         -6.2420    -3.3880    -0.0420 h1         1 67H       0.045033
     40 H15         -7.1140    -2.4150    -1.2660 h1         1 67H       0.045033
     41 H16         -5.6370    -3.3160    -1.7280 h1         1 67H       0.045033
     42 H17          5.6170     1.0240    -0.9970 ha         1 67H       0.115000
     43 H18          7.3310    -0.6440    -0.3490 ha         1 67H       0.125000
     44 H19          4.4870    -2.5770     2.2500 ha         1 67H       0.125000
     45 H20          2.7570    -0.9300     1.5970 ha         1 67H       0.115000
@<TRIPOS>BOND
     1     1     2 1   
     2     1     8 1   
     3     1    27 1   
     4     1    28 1   
     5     2     3 2   
     6     2    14 1   
     7     3     5 1   
     8     3    29 1   
     9     4     6 2   
    10     4    13 1   
    11     4    15 1   
    12     5    11 2   
    13     5    12 1   
    14     6    12 1   
    15     6    16 1   
    16     7    12 1   
    17     7    13 1   
    18     7    14 2   
    19     8    10 1   
    20     8    20 1   
    21     9    10 1   
    22     9    30 1   
    23     9    31 1   
    24     9    32 1   
    25    10    33 1   
    26    10    34 1   
    27    15    35 1   
    28    15    36 1   
    29    15    37 1   
    30    16    17 2   
    31    16    18 1   
    32    18    19 1   
    33    18    38 1   
    34    19    39 1   
    35    19    40 1   
    36    19    41 1   
    37    20    21 ar  
    38    20    25 ar  
    39    21    22 ar  
    40    21    42 1   
    41    22    23 ar  
    42    22    43 1   
    43    23    24 ar  
    44    23    26 1   
    45    24    25 ar  
    46    24    44 1   
    47    25    45 1   
@<TRIPOS>SUBSTRUCTURE
     1 67H         1 TEMP              0 ****  ****    0 ROOT
