@<TRIPOS>MOLECULE
67I
   26    27     1     0     0
SMALL
abcg2


@<TRIPOS>ATOM
      1 O           16.0880    19.2670     4.8190 o          1 67I      -0.731500
      2 C           17.1270    18.6370     5.1120 c          1 67I       0.692000
      3 OXT         17.6230    18.5010     6.2480 o          1 67I      -0.731500
      4 CA          17.8550    17.9530     3.9230 c3         1 67I       0.015500
      5 N           19.1490    17.3650     4.2240 n8         1 67I      -0.995200
      6 CB          16.9290    16.8870     3.3110 c3         1 67I      -0.000200
      7 CG          17.4670    16.2530     2.0740 cc         1 67I      -0.059400
      8 CD2         17.5880    16.8650     0.7860 ca         1 67I      -0.095800
      9 CE3         17.2440    18.1280     0.2970 ca         1 67I       0.010000
     10 CZ3         17.4930    18.3980    -1.0320 ca         1 67I      -0.070900
     11 BR1         17.0380    20.0960    -1.7340 br         1 67I      -0.127100
     12 CH2         18.0780    17.4630    -1.8990 ca         1 67I      -0.047000
     13 CZ2         18.4170    16.2160    -1.4130 ca         1 67I      -0.047900
     14 BR2         19.2090    14.9320    -2.5390 br         1 67I      -0.133100
     15 CE2         18.1710    15.9090    -0.0790 ca         1 67I      -0.025200
     16 NE1         18.3880    14.7820     0.6440 na         1 67I      -0.218700
     17 CD1         17.9650    14.9900     1.9310 cd         1 67I      -0.182100
     18 H2          18.0170    18.7240     3.1610 h1         1 67I       0.041700
     19 H3          19.7480    18.0850     4.6090 hn         1 67I       0.381000
     20 H4          19.0280    16.7060     4.9860 hn         1 67I       0.381000
     21 H6          15.9640    17.3500     3.0980 hc         1 67I       0.051700
     22 H7          16.7410    16.1110     4.0600 hc         1 67I       0.051700
     23 H8          16.7930    18.8660     0.9480 ha         1 67I       0.155000
     24 H9          18.2620    17.7140    -2.9340 ha         1 67I       0.127000
     25 H10         18.7810    13.9210     0.3000 hn         1 67I       0.348000
     26 H11         18.0520    14.2040     2.6640 h4         1 67I       0.211000
@<TRIPOS>BOND
     1     1     2 1   
     2     2     3 1   
     3     2     4 1   
     4     4     5 1   
     5     4     6 1   
     6     4    18 1   
     7     5    19 1   
     8     5    20 1   
     9     6     7 1   
    10     6    21 1   
    11     6    22 1   
    12     7     8 1   
    13     7    17 2   
    14     8     9 ar  
    15     8    15 ar  
    16     9    10 ar  
    17     9    23 1   
    18    10    11 1   
    19    10    12 ar  
    20    12    13 ar  
    21    12    24 1   
    22    13    14 1   
    23    13    15 ar  
    24    15    16 1   
    25    16    17 1   
    26    16    25 1   
    27    17    26 1   
@<TRIPOS>SUBSTRUCTURE
     1 67I         1 TEMP              0 ****  ****    0 ROOT
