@<TRIPOS>MOLECULE
67I
   26    27     1     0     0
SMALL
No Charge or Current Charge


@<TRIPOS>ATOM
      1 O           16.7120    19.9050     4.7000 o          1 67I      -0.731500
      2 C           17.0490    18.7650     4.9900 c          1 67I       0.692000
      3 OXT         16.8660    18.2760     6.0980 o          1 67I      -0.731500
      4 CA          17.8810    17.9370     3.9290 c3         1 67I       0.015500
      5 N           19.2070    17.3910     4.4100 n8         1 67I      -0.995200
      6 CB          16.9910    16.8130     3.3290 c3         1 67I      -0.000200
      7 CG          17.5380    16.1920     2.0670 cc         1 67I      -0.059400
      8 CD2         17.6130    16.8050     0.7690 ca         1 67I      -0.095800
      9 CE3         17.2230    18.0850     0.3460 ca         1 67I       0.010000
     10 CZ3         17.4150    18.4190    -1.0120 ca         1 67I      -0.070900
     11 Br1         16.9050    20.1490    -1.6450 br         1 67I      -0.127100
     12 CH2         17.9820    17.4830    -1.9080 ca         1 67I      -0.047000
     13 CZ2         18.3600    16.2030    -1.4490 ca         1 67I      -0.047900
     14 Br2         19.1240    14.9250    -2.6530 br         1 67I      -0.133100
     15 CE2         18.1590    15.8950    -0.0940 ca         1 67I      -0.025200
     16 NE1         18.4470    14.7120     0.5620 na         1 67I      -0.218700
     17 CD1         18.0510    14.9070     1.9090 cd         1 67I      -0.182100
     18 H2          18.1100    18.6370     3.1140 h1         1 67I       0.041700
     19 H3          19.7840    18.1680     4.7520 hn         1 67I       0.381000
     20 H4          19.0380    16.8370     5.2590 hn         1 67I       0.381000
     21 H6          16.0020    17.2330     3.1070 hc         1 67I       0.051700
     22 H7          16.8240    16.0380     4.0870 hc         1 67I       0.051700
     23 H8          16.7850    18.7980     1.0400 ha         1 67I       0.155000
     24 H9          18.1270    17.7480    -2.9530 ha         1 67I       0.127000
     25 H10         18.8570    13.8760     0.1560 hn         1 67I       0.348000
     26 H11         18.1640    14.1260     2.6560 h4         1 67I       0.211000
@<TRIPOS>BOND
     1     1     2 1   
     2     2     3 1   
     3     2     4 1   
     4     4     5 1   
     5     4     6 1   
     6     4    18 1   
     7     5    19 1   
     8     5    20 1   
     9     6     7 1   
    10     6    21 1   
    11     6    22 1   
    12     7     8 1   
    13     7    17 2   
    14     8     9 ar  
    15     8    15 ar  
    16     9    10 ar  
    17     9    23 1   
    18    10    11 1   
    19    10    12 ar  
    20    12    13 ar  
    21    12    24 1   
    22    13    14 1   
    23    13    15 ar  
    24    15    16 1   
    25    16    17 1   
    26    16    25 1   
    27    17    26 1   
@<TRIPOS>SUBSTRUCTURE
     1 67I         1 TEMP              0 ****  ****    0 ROOT
