@<TRIPOS>MOLECULE
67J
   43    45     1     0     0
SMALL
abcg2


@<TRIPOS>ATOM
      1 C4          -4.4070    -0.4170    -0.8780 c          1 67J       0.650700
      2 C14          0.2250    -1.4050     1.1000 cc         1 67J       0.208400
      3 C6          -3.1870     0.2780    -0.3390 cc         1 67J      -0.147600
      4 C11         -2.0880    -1.8100     0.4510 c          1 67J       0.537000
      5 C7          -2.9620     1.5970    -0.4400 cd         1 67J      -0.192300
      6 C9          -0.9940     0.3430     0.3970 cd         1 67J      -0.013000
      7 C13         -0.8200    -2.2650     0.9200 cd         1 67J      -0.383200
      8 N3          -5.4890    -0.3060    -0.1090 ns         1 67J      -0.490900
      9 C2          -6.7690    -0.8880    -0.4730 c3         1 67J       0.106000
     10 O5          -4.3840    -0.9410    -1.9780 o          1 67J      -0.565100
     11 S8          -1.3390     2.0010     0.0560 ss         1 67J       0.227000
     12 N10         -2.0860    -0.4310     0.1420 n          1 67J      -0.000800
     13 O12         -3.1080    -2.4590     0.3050 o          1 67J      -0.515000
     14 N15          0.1400    -0.0780     0.8510 nc         1 67J      -0.335600
     15 C17          2.6470    -1.5670     0.6140 ca         1 67J      -0.126300
     16 C18          2.9490    -2.4490    -0.4190 ca         1 67J      -0.049000
     17 C19          3.9270    -2.1550    -1.3550 ca         1 67J      -0.137000
     18 C20          4.6260    -0.9610    -1.2770 ca         1 67J      -0.031000
     19 C21          4.3490    -0.0610    -0.2560 ca         1 67J      -0.251300
     20 C22          3.3630    -0.3850     0.6680 ca         1 67J       0.248000
     21 F23          3.1120     0.4780     1.6570 f          1 67J      -0.152000
     22 C24          5.0850     1.2380    -0.1380 c3         1 67J       0.369300
     23 F25          4.2610     2.2910    -0.2150 f          1 67J      -0.109667
     24 F26          5.7410     1.3410     1.0250 f          1 67J      -0.109667
     25 F27          5.9920     1.3850    -1.1080 f          1 67J      -0.109667
     26 C28         -3.8680     2.6640    -0.9400 c3         1 67J      -0.024800
     27 H1          -0.7180    -3.3170     1.1480 ha         1 67J       0.216000
     28 H3          -5.3900     0.0970     0.8100 hn         1 67J       0.320500
     29 H4          -7.9570     0.4700     0.7280 hc         1 67J       0.043700
     30 H5          -8.7570    -1.0450     0.3190 hc         1 67J       0.043700
     31 H6          -7.5080    -1.0250     1.5600 hc         1 67J       0.043700
     32 H7          -7.0940    -0.4750    -1.4290 h1         1 67J       0.055700
     33 H8          -6.6570    -1.9660    -0.6100 h1         1 67J       0.055700
     34 H9           1.7570    -1.4230     2.5710 hc         1 67J       0.074200
     35 H10          1.5200    -2.9620     1.7680 hc         1 67J       0.074200
     36 H11          2.4080    -3.3850    -0.4830 ha         1 67J       0.123000
     37 H12          4.1490    -2.8580    -2.1470 ha         1 67J       0.127000
     38 H13          5.3870    -0.7420    -2.0140 ha         1 67J       0.135000
     39 H14         -3.9850     3.4530    -0.1970 hc         1 67J       0.058700
     40 H15         -3.4700     3.1180    -1.8480 hc         1 67J       0.058700
     41 H16         -4.8540     2.2650    -1.1630 hc         1 67J       0.058700
     42 C16          1.5580    -1.8860     1.6020 c3         1 67J       0.022100
     43 C1          -7.8030    -0.6020     0.5990 c3         1 67J      -0.112100
@<TRIPOS>BOND
     1     1     3 1   
     2     1     8 1   
     3     1    10 2   
     4     2     7 2   
     5     2    14 1   
     6     2    42 1   
     7     3     5 2   
     8     3    12 1   
     9     4     7 1   
    10     4    12 1   
    11     4    13 2   
    12     5    11 1   
    13     5    26 1   
    14     6    11 1   
    15     6    12 1   
    16     6    14 2   
    17     7    27 1   
    18     8     9 1   
    19     8    28 1   
    20     9    32 1   
    21     9    33 1   
    22     9    43 1   
    23    15    16 ar  
    24    15    20 ar  
    25    15    42 1   
    26    16    17 ar  
    27    16    36 1   
    28    17    18 ar  
    29    17    37 1   
    30    18    19 ar  
    31    18    38 1   
    32    19    20 ar  
    33    19    22 1   
    34    20    21 1   
    35    22    23 1   
    36    22    24 1   
    37    22    25 1   
    38    26    39 1   
    39    26    40 1   
    40    26    41 1   
    41    29    43 1   
    42    30    43 1   
    43    31    43 1   
    44    34    42 1   
    45    35    42 1   
@<TRIPOS>SUBSTRUCTURE
     1 67J         1 TEMP              0 ****  ****    0 ROOT
