@<TRIPOS>MOLECULE
67J
   43    45     1     0     0
SMALL
No Charge or Current Charge


@<TRIPOS>ATOM
      1 C4          -4.2000     0.0950    -0.6650 c          1 67J       0.650700
      2 C14          0.4920    -0.7320     1.6290 cc         1 67J       0.208400
      3 C6          -3.3580     0.4840     0.5220 cc         1 67J      -0.147600
      4 C11         -1.5800    -1.3120     0.3290 c          1 67J       0.537000
      5 C7          -3.6780     1.5290     1.3890 cd         1 67J      -0.192300
      6 C9          -1.3720     0.6080     1.7460 cd         1 67J      -0.013000
      7 C13         -0.2000    -1.5590     0.7670 cd         1 67J      -0.383200
      8 N3          -5.5370     0.4050    -0.5490 ns         1 67J      -0.490900
      9 C2          -6.5610     0.1230    -1.5580 c3         1 67J       0.106000
     10 O5          -3.7750    -0.4270    -1.6860 o          1 67J      -0.565100
     11 S8          -2.3310     1.8860     2.4900 ss         1 67J       0.227000
     12 N10         -2.1020    -0.0790     0.8000 n          1 67J      -0.000800
     13 O12         -2.1830    -2.1420    -0.3350 o          1 67J      -0.515000
     14 N15         -0.1370     0.3700     2.1760 nc         1 67J      -0.335600
     15 C17          2.8380    -1.3770     0.9150 ca         1 67J      -0.126300
     16 C18          3.3130    -2.6970     0.7990 ca         1 67J      -0.049000
     17 C19          4.1540    -3.0510    -0.2670 ca         1 67J      -0.137000
     18 C20          4.5280    -2.0960    -1.2250 ca         1 67J      -0.031000
     19 C21          4.0610    -0.7660    -1.1270 ca         1 67J      -0.251300
     20 C22          3.2150    -0.4190    -0.0500 ca         1 67J       0.248000
     21 F23          2.7560     0.8490     0.0630 f          1 67J      -0.152000
     22 C24          4.4540     0.2930    -2.1630 c3         1 67J       0.369300
     23 F25          3.3700     0.8040    -2.7890 f          1 67J      -0.109667
     24 F26          5.1100     1.3280    -1.5930 f          1 67J      -0.109667
     25 F27          5.2660    -0.1910    -3.1310 f          1 67J      -0.109667
     26 C28         -4.8610     2.4760     1.4160 c3         1 67J      -0.024800
     27 H1           0.2430    -2.4660     0.3760 ha         1 67J       0.216000
     28 H3          -5.8250     0.8080     0.3320 hn         1 67J       0.320500
     29 H4          -7.4070    -1.6180    -0.5530 hc         1 67J       0.043700
     30 H5          -7.7800    -1.5250    -2.2880 hc         1 67J       0.043700
     31 H6          -6.1580    -2.0150    -1.7560 hc         1 67J       0.043700
     32 H7          -7.4300     0.7660    -1.3630 h1         1 67J       0.055700
     33 H8          -6.1700     0.3780    -2.5520 h1         1 67J       0.055700
     34 H9           2.3150    -0.1130     2.5820 hc         1 67J       0.074200
     35 H10          1.8990    -1.7880     2.8280 hc         1 67J       0.074200
     36 H11          3.0300    -3.4510     1.5310 ha         1 67J       0.123000
     37 H12          4.5170    -4.0730    -0.3520 ha         1 67J       0.127000
     38 H13          5.1810    -2.4020    -2.0410 ha         1 67J       0.135000
     39 H14         -5.7660     1.9790     1.7860 hc         1 67J       0.058700
     40 H15         -4.6720     3.3270     2.0830 hc         1 67J       0.058700
     41 H16         -5.0680     2.8930     0.4230 hc         1 67J       0.058700
     42 C16          1.9120    -0.9960     2.0700 c3         1 67J       0.022100
     43 C1          -7.0020    -1.3510    -1.5360 c3         1 67J      -0.112100
@<TRIPOS>BOND
     1     1     3 1   
     2     1     8 1   
     3     1    10 2   
     4     2     7 2   
     5     2    14 1   
     6     2    42 1   
     7     3     5 2   
     8     3    12 1   
     9     4     7 1   
    10     4    12 1   
    11     4    13 2   
    12     5    11 1   
    13     5    26 1   
    14     6    11 1   
    15     6    12 1   
    16     6    14 2   
    17     7    27 1   
    18     8     9 1   
    19     8    28 1   
    20     9    32 1   
    21     9    33 1   
    22     9    43 1   
    23    15    16 ar  
    24    15    20 ar  
    25    15    42 1   
    26    16    17 ar  
    27    16    36 1   
    28    17    18 ar  
    29    17    37 1   
    30    18    19 ar  
    31    18    38 1   
    32    19    20 ar  
    33    19    22 1   
    34    20    21 1   
    35    22    23 1   
    36    22    24 1   
    37    22    25 1   
    38    26    39 1   
    39    26    40 1   
    40    26    41 1   
    41    29    43 1   
    42    30    43 1   
    43    31    43 1   
    44    34    42 1   
    45    35    42 1   
@<TRIPOS>SUBSTRUCTURE
     1 67J         1 TEMP              0 ****  ****    0 ROOT
