@<TRIPOS>MOLECULE
67K
   23    24     1     0     0
SMALL
abcg2


@<TRIPOS>ATOM
      1 CAC          2.0300     1.2450     0.0260 ca         1 67K      -0.113000
      2 CAB          3.4050     1.4090     0.0540 ca         1 67K      -0.083000
      3 CAA          4.2170     0.2850     0.0200 ca         1 67K      -0.154000
      4 CAN         -2.9070     1.8200    -0.0600 c          1 67K       0.473400
      5 CAG          0.0470    -0.2790    -0.0670 cp         1 67K       0.320000
      6 CAK         -2.0400     0.6140    -0.0780 ca         1 67K       0.284500
      7 CAH         -0.4610    -1.5750    -0.1110 ca         1 67K      -0.141000
      8 OAO         -2.4870     2.9480    -0.0250 o          1 67K      -0.474100
      9 NAL         -0.7270     0.7980    -0.0510 nb         1 67K      -0.649000
     10 CAJ         -2.6520    -0.6260    -0.1210 ca         1 67K      -0.228000
     11 CAI         -1.8370    -1.7580    -0.1390 ca         1 67K       0.162100
     12 OAM         -2.3120    -3.0030    -0.1790 oh         1 67K      -0.519100
     13 CAD          1.5130    -0.0470    -0.0350 cp         1 67K       0.283000
     14 NAE          2.2930    -1.1240    -0.0670 nb         1 67K      -0.672000
     15 CAF          3.6070    -0.9600    -0.0400 ca         1 67K       0.335900
     16 H1           1.3650     2.0950     0.0510 ha         1 67K       0.153000
     17 H2           3.8360     2.4000     0.1020 ha         1 67K       0.123000
     18 H3           5.2950     0.3660     0.0390 ha         1 67K       0.124000
     19 H4          -3.9890     1.6060    -0.0830 h4         1 67K      -0.007800
     20 H5           0.2080    -2.4240    -0.1220 ha         1 67K       0.164000
     21 H6          -3.7330    -0.7070    -0.1400 ha         1 67K       0.125000
     22 H7          -3.2770    -3.0070    -0.1960 ho         1 67K       0.472000
     23 H8           4.2080    -1.8620    -0.0680 h4         1 67K       0.020100
@<TRIPOS>BOND
     1     1     2 ar  
     2     1    13 ar  
     3     1    16 1   
     4     2     3 ar  
     5     2    17 1   
     6     3    15 ar  
     7     3    18 1   
     8     4     6 1   
     9     4     8 2   
    10     4    19 1   
    11     5     7 ar  
    12     5     9 ar  
    13     5    13 1   
    14     6     9 ar  
    15     6    10 ar  
    16     7    11 ar  
    17     7    20 1   
    18    10    11 ar  
    19    10    21 1   
    20    11    12 1   
    21    12    22 1   
    22    13    14 ar  
    23    14    15 ar  
    24    15    23 1   
@<TRIPOS>SUBSTRUCTURE
     1 67K         1 TEMP              0 ****  ****    0 ROOT
