@<TRIPOS>MOLECULE
67K
   23    24     1     0     0
SMALL
No Charge or Current Charge


@<TRIPOS>ATOM
      1 CAC          2.1050     1.2510     0.0170 ca         1 67K      -0.113000
      2 CAB          3.4970     1.4390     0.0460 ca         1 67K      -0.083000
      3 CAA          4.3190     0.3030     0.0240 ca         1 67K      -0.154000
      4 CAN         -3.0210     1.8530    -0.0510 c          1 67K       0.473400
      5 CAG          0.0540    -0.3040    -0.0660 cp         1 67K       0.320000
      6 CAK         -2.1210     0.6240    -0.0740 ca         1 67K       0.284500
      7 CAH         -0.4930    -1.6100    -0.1160 ca         1 67K      -0.141000
      8 OAO         -2.6220     3.0160    -0.0080 o          1 67K      -0.474100
      9 NAL         -0.7670     0.7800    -0.0460 nb         1 67K      -0.649000
     10 CAJ         -2.7040    -0.6580    -0.1240 ca         1 67K      -0.228000
     11 CAI         -1.8790    -1.7850    -0.1450 ca         1 67K       0.162100
     12 OAM         -2.4110    -3.0380    -0.1930 oh         1 67K      -0.519100
     13 CAD          1.5590    -0.0630    -0.0340 cp         1 67K       0.283000
     14 NAE          2.3830    -1.1480    -0.0540 nb         1 67K      -0.672000
     15 CAF          3.7240    -0.9670    -0.0250 ca         1 67K       0.335900
     16 H1           1.4490     2.1170     0.0330 ha         1 67K       0.153000
     17 H2           3.9250     2.4390     0.0840 ha         1 67K       0.123000
     18 H3           5.4010     0.3970     0.0460 ha         1 67K       0.124000
     19 H4          -4.1130     1.6390    -0.0760 h4         1 67K      -0.007800
     20 H5           0.1570    -2.4790    -0.1320 ha         1 67K       0.164000
     21 H6          -3.7860    -0.7610    -0.1450 ha         1 67K       0.125000
     22 H7          -3.3900    -2.9620    -0.2070 ho         1 67K       0.472000
     23 H8           4.3370    -1.8680    -0.0430 h4         1 67K       0.020100
@<TRIPOS>BOND
     1     1     2 ar  
     2     1    13 ar  
     3     1    16 1   
     4     2     3 ar  
     5     2    17 1   
     6     3    15 ar  
     7     3    18 1   
     8     4     6 1   
     9     4     8 2   
    10     4    19 1   
    11     5     7 ar  
    12     5     9 ar  
    13     5    13 1   
    14     6     9 ar  
    15     6    10 ar  
    16     7    11 ar  
    17     7    20 1   
    18    10    11 ar  
    19    10    21 1   
    20    11    12 1   
    21    12    22 1   
    22    13    14 ar  
    23    14    15 ar  
    24    15    23 1   
@<TRIPOS>SUBSTRUCTURE
     1 67K         1 TEMP              0 ****  ****    0 ROOT
