@<TRIPOS>MOLECULE
67L
   25    26     1     0     0
SMALL
No Charge or Current Charge


@<TRIPOS>ATOM
      1 CAC         -2.2170     1.3790    -0.0360 ca         1 67L      -0.120000
      2 CAB         -3.6020     1.6090    -0.0800 ca         1 67L      -0.083000
      3 CAA         -4.4550     0.4970    -0.1280 ca         1 67L      -0.157000
      4 CAF         -3.8970    -0.7910    -0.1310 ca         1 67L       0.336900
      5 NAE         -2.5620    -1.0110    -0.0890 nb         1 67L      -0.670000
      6 CAD         -1.7070     0.0500    -0.0410 cp         1 67L       0.290000
      7 CAG         -0.2090    -0.2350     0.0060 cp         1 67L       0.327000
      8 NAL          0.6450     0.8240     0.0570 nb         1 67L      -0.715000
      9 CAH          0.3010    -1.5580    -0.0000 ca         1 67L      -0.160000
     10 CAI          1.6790    -1.7780     0.0430 ca         1 67L       0.164100
     11 OAM          2.1730    -3.0480     0.0370 oh         1 67L      -0.524100
     12 CAJ          2.5360    -0.6760     0.0930 ca         1 67L      -0.230000
     13 CAK          1.9830     0.6140     0.0960 ca         1 67L       0.382300
     14 CAN          2.8910     1.8550     0.1560 c3         1 67L       0.108300
     15 OAO          3.6910     2.0200    -1.0360 oh         1 67L      -0.664000
     16 H1          -1.5370     2.2260     0.0020 ha         1 67L       0.145000
     17 H2          -4.0010     2.6210    -0.0760 ha         1 67L       0.119000
     18 H3          -5.5340     0.6230    -0.1640 ha         1 67L       0.124000
     19 H4          -4.5340    -1.6730    -0.1680 h4         1 67L       0.019100
     20 H5          -0.3750    -2.4070    -0.0400 ha         1 67L       0.161000
     21 H6           3.1530    -3.0030     0.0680 ho         1 67L       0.471000
     22 H7           3.6150    -0.8000     0.1260 ha         1 67L       0.142000
     23 H8           2.2690     2.7460     0.3170 h1         1 67L       0.041700
     24 H9           3.5430     1.7590     1.0350 h1         1 67L       0.041700
     25 H10          4.2160     2.8450    -0.9220 ho         1 67L       0.452000
@<TRIPOS>BOND
     1     1     2 ar  
     2     1     6 ar  
     3     1    16 1   
     4     2     3 ar  
     5     2    17 1   
     6     3     4 ar  
     7     3    18 1   
     8     4     5 ar  
     9     4    19 1   
    10     5     6 ar  
    11     6     7 1   
    12     7     8 ar  
    13     7     9 ar  
    14     8    13 ar  
    15     9    10 ar  
    16     9    20 1   
    17    10    11 1   
    18    10    12 ar  
    19    11    21 1   
    20    12    13 ar  
    21    12    22 1   
    22    13    14 1   
    23    14    15 1   
    24    14    23 1   
    25    14    24 1   
    26    15    25 1   
@<TRIPOS>SUBSTRUCTURE
     1 67L         1 TEMP              0 ****  ****    0 ROOT
