@<TRIPOS>MOLECULE
67L
   25    26     1     0     0
SMALL
abcg2


@<TRIPOS>ATOM
      1 CAC         -2.1560     1.3610    -0.0040 ca         1 67L      -0.120000
      2 CAB         -3.5260     1.5600     0.0210 ca         1 67L      -0.083000
      3 CAA         -4.3660     0.4570     0.0280 ca         1 67L      -0.157000
      4 CAF         -3.7860    -0.8030     0.0100 ca         1 67L       0.336900
      5 NAE         -2.4770    -1.0020    -0.0140 nb         1 67L      -0.670000
      6 CAD         -1.6680     0.0560    -0.0210 cp         1 67L       0.290000
      7 CAG         -0.2080    -0.2130    -0.0460 cp         1 67L       0.327000
      8 NAL          0.5930     0.8490    -0.0330 nb         1 67L      -0.715000
      9 CAH          0.2690    -1.5160    -0.0800 ca         1 67L      -0.160000
     10 CAI          1.6450    -1.7100    -0.1020 ca         1 67L       0.164100
     11 OAM          2.1020    -2.9660    -0.1330 oh         1 67L      -0.524100
     12 CAJ          2.4860    -0.6000    -0.0870 ca         1 67L      -0.230000
     13 CAK          1.9060     0.6580    -0.0530 ca         1 67L       0.382300
     14 CAN          2.7270     1.9170    -0.0280 c3         1 67L       0.108300
     15 OAO          4.0930     1.6110    -0.1000 oh         1 67L      -0.664000
     16 H1          -1.4700     2.1950    -0.0100 ha         1 67L       0.145000
     17 H2          -3.9310     2.5630     0.0350 ha         1 67L       0.119000
     18 H3          -5.4420     0.5640     0.0480 ha         1 67L       0.124000
     19 H4          -4.4090    -1.6910     0.0150 h4         1 67L       0.019100
     20 H5          -0.4120    -2.3550    -0.0880 ha         1 67L       0.161000
     21 H6           3.0670    -2.9800    -0.1390 ho         1 67L       0.471000
     22 H7           3.5620    -0.7170    -0.1020 ha         1 67L       0.142000
     23 H8           2.4010     2.5520    -0.8620 h1         1 67L       0.041700
     24 H9           2.4760     2.4640     0.8910 h1         1 67L       0.041700
     25 H10          4.5900     2.4310    -0.0220 ho         1 67L       0.452000
@<TRIPOS>BOND
     1     1     2 ar  
     2     1     6 ar  
     3     1    16 1   
     4     2     3 ar  
     5     2    17 1   
     6     3     4 ar  
     7     3    18 1   
     8     4     5 ar  
     9     4    19 1   
    10     5     6 ar  
    11     6     7 1   
    12     7     8 ar  
    13     7     9 ar  
    14     8    13 ar  
    15     9    10 ar  
    16     9    20 1   
    17    10    11 1   
    18    10    12 ar  
    19    11    21 1   
    20    12    13 ar  
    21    12    22 1   
    22    13    14 1   
    23    14    15 1   
    24    14    23 1   
    25    14    24 1   
    26    15    25 1   
@<TRIPOS>SUBSTRUCTURE
     1 67L         1 TEMP              0 ****  ****    0 ROOT
